(PID.TID 0000.0001) 
(PID.TID 0000.0001) // ======================================================
(PID.TID 0000.0001) //                      MITgcm UV
(PID.TID 0000.0001) //                      =========
(PID.TID 0000.0001) // ======================================================
(PID.TID 0000.0001) // execution environment starting up...
(PID.TID 0000.0001) 
(PID.TID 0000.0001) // MITgcmUV version:  checkpoint67b
(PID.TID 0000.0001) // Build user:        dannes
(PID.TID 0000.0001) // Build host:        eslogin005
(PID.TID 0000.0001) // Build date:        Sat Jun  2 20:28:28 BST 2018
(PID.TID 0000.0001) 
(PID.TID 0000.0001) // =======================================================
(PID.TID 0000.0001) // Execution Environment parameter file "eedata"
(PID.TID 0000.0001) // =======================================================
(PID.TID 0000.0001) ># Example "eedata" file
(PID.TID 0000.0001) ># Lines beginning "#" are comments
(PID.TID 0000.0001) ># nTx - No. threads per process in X
(PID.TID 0000.0001) ># nTy - No. threads per process in Y
(PID.TID 0000.0001) > &EEPARMS
(PID.TID 0000.0001) > nTx=1,
(PID.TID 0000.0001) > nTy=1,
(PID.TID 0000.0001) > &
(PID.TID 0000.0001) ># Note: Some systems use & as the
(PID.TID 0000.0001) ># namelist terminator. Other systems
(PID.TID 0000.0001) ># use a / character (as shown here).
(PID.TID 0000.0001) 
(PID.TID 0000.0001) // =======================================================
(PID.TID 0000.0001) // Computational Grid Specification ( see files "SIZE.h" )
(PID.TID 0000.0001) //                                  ( and "eedata"       )
(PID.TID 0000.0001) // =======================================================
(PID.TID 0000.0001)      nPx =    8 ; /* No. processes in X */
(PID.TID 0000.0001)      nPy =    4 ; /* No. processes in Y */
(PID.TID 0000.0001)      nSx =    1 ; /* No. tiles in X per process */
(PID.TID 0000.0001)      nSy =    1 ; /* No. tiles in Y per process */
(PID.TID 0000.0001)      sNx =   16 ; /* Tile size in X */
(PID.TID 0000.0001)      sNy =   16 ; /* Tile size in Y */
(PID.TID 0000.0001)      OLx =    4 ; /* Tile overlap distance in X */
(PID.TID 0000.0001)      OLy =    4 ; /* Tile overlap distance in Y */
(PID.TID 0000.0001)      nTx =    1 ; /* No. threads in X per process */
(PID.TID 0000.0001)      nTy =    1 ; /* No. threads in Y per process */
(PID.TID 0000.0001)       Nr =   23 ; /* No. levels in the vertical   */
(PID.TID 0000.0001)       Nx =  128 ; /* Total domain size in X ( = nPx*nSx*sNx ) */
(PID.TID 0000.0001)       Ny =   64 ; /* Total domain size in Y ( = nPy*nSy*sNy ) */
(PID.TID 0000.0001)   nTiles =    1 ; /* Total no. tiles per process ( = nSx*nSy ) */
(PID.TID 0000.0001)   nProcs =   32 ; /* Total no. processes ( = nPx*nPy ) */
(PID.TID 0000.0001) nThreads =    1 ; /* Total no. threads per process ( = nTx*nTy ) */
(PID.TID 0000.0001) usingMPI =    T ; /* Flag used to control whether MPI is in use */
(PID.TID 0000.0001)                   /*  note: To execute a program with MPI calls */
(PID.TID 0000.0001)                   /*  it must be launched appropriately e.g     */
(PID.TID 0000.0001)                   /*  "mpirun -np 64 ......"                    */
(PID.TID 0000.0001) useCoupler=    F ;/* Flag used to control communications with   */
(PID.TID 0000.0001)                   /*  other model components, through a coupler */
(PID.TID 0000.0001) debugMode =    F ; /* print debug msg. (sequence of S/R calls)  */
(PID.TID 0000.0001) printMapIncludesZeros=    F ; /* print zeros in Std.Output maps */
(PID.TID 0000.0001) maxLengthPrt1D=   65 /* maxLength of 1D array printed to StdOut */
(PID.TID 0000.0001) 
(PID.TID 0000.0001) ======= Starting MPI parallel Run =========
(PID.TID 0000.0001)  My Processor Name (len:  8 ) = nid02692
(PID.TID 0000.0001)  Located at (  0,  0) on processor grid (0:  7,0:  3)
(PID.TID 0000.0001)  Origin at  (     1,     1) on global grid (1:   128,1:    64)
(PID.TID 0000.0001)  North neighbor = processor 0001
(PID.TID 0000.0001)  South neighbor = processor 0003
(PID.TID 0000.0001)   East neighbor = processor 0004
(PID.TID 0000.0001)   West neighbor = processor 0028
(PID.TID 0000.0001) // ======================================================
(PID.TID 0000.0001) // Mapping of tiles to threads
(PID.TID 0000.0001) // ======================================================
(PID.TID 0000.0001) // -o- Thread   1, tiles (   1:   1,   1:   1)
(PID.TID 0000.0001) 
(PID.TID 0000.0001) // ======================================================
(PID.TID 0000.0001) // Tile <-> Tile connectvity table
(PID.TID 0000.0001) // ======================================================
(PID.TID 0000.0001) // Tile number: 000001 (process no. = 000000)
(PID.TID 0000.0001) //        WEST: Tile = 000008, Process = 000028, Comm = messages
(PID.TID 0000.0001) //                bi = 000001, bj = 000001
(PID.TID 0000.0001) //        EAST: Tile = 000002, Process = 000004, Comm = messages
(PID.TID 0000.0001) //                bi = 000001, bj = 000001
(PID.TID 0000.0001) //       SOUTH: Tile = 000025, Process = 000003, Comm = messages
(PID.TID 0000.0001) //                bi = 000001, bj = 000001
(PID.TID 0000.0001) //       NORTH: Tile = 000009, Process = 000001, Comm = messages
(PID.TID 0000.0001) //                bi = 000001, bj = 000001
(PID.TID 0000.0001) 
(PID.TID 0000.0001)  INI_PARMS: opening model parameter file "data"
(PID.TID 0000.0001)  OPEN_COPY_DATA_FILE: opening file data
(PID.TID 0000.0001) // =======================================================
(PID.TID 0000.0001) // Parameter file "data"
(PID.TID 0000.0001) // =======================================================
(PID.TID 0000.0001) ># ====================
(PID.TID 0000.0001) ># | Model parameters |
(PID.TID 0000.0001) ># ====================
(PID.TID 0000.0001) >#
(PID.TID 0000.0001) ># PARM01: Continuous equation parameters
(PID.TID 0000.0001) > &PARM01
(PID.TID 0000.0001) ># The tRef and sRef increased vertical resolutions(Dec 21st, 2017)
(PID.TID 0000.0001) ># (revisit the settings)
(PID.TID 0000.0001) ># ----------
(PID.TID 0000.0001) > tRef = 23*20.,
(PID.TID 0000.0001) > sRef = 23*35.,
(PID.TID 0000.0001) > viscA4 = 0.,
(PID.TID 0000.0001) > viscAh = 2.E5,
(PID.TID 0000.0001) > diffKhT = 0.E3,
(PID.TID 0000.0001) > diffKhS = 0.E3,
(PID.TID 0000.0001) > viscAz = 1.E-3,
(PID.TID 0000.0001) >#-- diffKzT = 3.E-5,
(PID.TID 0000.0001) >#-- diffKzS = 3.E-5,
(PID.TID 0000.0001) > diffKrBL79surf = 3.E-5,
(PID.TID 0000.0001) > diffKrBL79deep = 13.E-5,
(PID.TID 0000.0001) > diffKrBL79Ho = -2000.,
(PID.TID 0000.0001) > diffKrBL79scl = 150.,
(PID.TID 0000.0001) > gravity = 9.81,
(PID.TID 0000.0001) > rhoConst = 1035.,
(PID.TID 0000.0001) > rhoConstFresh = 1000.,
(PID.TID 0000.0001) > implicitFreeSurface =.TRUE.,
(PID.TID 0000.0001) > eosType ='JMD95Z',
(PID.TID 0000.0001) > implicitDiffusion =.TRUE.,
(PID.TID 0000.0001) > implicitViscosity =.TRUE.,
(PID.TID 0000.0001) >#-- ivdc_kappa = 100.,
(PID.TID 0000.0001) ># Changed the advection scheme(Sep 6th, 2013)
(PID.TID 0000.0001) ># '77' is second-order flux limiters (non-linear)
(PID.TID 0000.0001) ># ----------
(PID.TID 0000.0001) > tempAdvScheme = 77,
(PID.TID 0000.0001) > saltAdvScheme = 77,
(PID.TID 0000.0001) > allowFreezing =.TRUE.,
(PID.TID 0000.0001) ># Turn on looped cells
(PID.TID 0000.0001) ># ----------
(PID.TID 0000.0001) > hFacMin =.1,
(PID.TID 0000.0001) > hFacMindz = 50.,
(PID.TID 0000.0001) > useCDscheme =.TRUE.,
(PID.TID 0000.0001) > useSinglecpuIO =.TRUE.,
(PID.TID 0000.0001) > staggerTimeStep =.TRUE.,
(PID.TID 0000.0001) > debugLevel = 0,
(PID.TID 0000.0001) > &
(PID.TID 0000.0001) >
(PID.TID 0000.0001) ># PARM02: Elliptic solver parameters
(PID.TID 0000.0001) ># ----------
(PID.TID 0000.0001) > &PARM02
(PID.TID 0000.0001) > cg2dMaxIters = 1000,
(PID.TID 0000.0001) > cg2dTargetResidual = 1.E-13,
(PID.TID 0000.0001) > &
(PID.TID 0000.0001) >
(PID.TID 0000.0001) ># PARM03: Time stepping parameters
(PID.TID 0000.0001) ># ----------
(PID.TID 0000.0001) > &PARM03
(PID.TID 0000.0001) > nIter0 = 3600000,
(PID.TID 0000.0001) >#nTimeSteps = 1440000,
(PID.TID 0000.0001) >#nTimeSteps = 73000,
(PID.TID 0000.0001) > nTimeSteps = 730,
(PID.TID 0000.0001) >#nTimeSteps = 2,
(PID.TID 0000.0001) ># ----------
(PID.TID 0000.0001) ># PARM03-1: Length of the simulation in time step(300 years + 1 month)
(PID.TID 0000.0001) ># nTimeSteps = 216060,
(PID.TID 0000.0001) ># PARM03-2: Length of the simulation in time step(1000 years)
(PID.TID 0000.0001) ># *nTimeSteps =  720000,
(PID.TID 0000.0001) ># *nTimeSteps = 1440000,
(PID.TID 0000.0001) ># ----------
(PID.TID 0000.0001) >
(PID.TID 0000.0001) ># Time increment is 900 seconds for physics
(PID.TID 0000.0001) ># ----------
(PID.TID 0000.0001) > deltaTmom = 900.,
(PID.TID 0000.0001) > tauCD = 321428.,
(PID.TID 0000.0001) ># Time increment is 12 hours for tracers
(PID.TID 0000.0001) ># ----------
(PID.TID 0000.0001) > deltaTtracer = 43200.,
(PID.TID 0000.0001) > deltaTClock = 43200.,
(PID.TID 0000.0001) > abEps = 0.1,
(PID.TID 0000.0001) ># ----------
(PID.TID 0000.0001) ># OUTPUT: frequency settings for sensitivity experiments
(PID.TID 0000.0001) ># pChkptFreq = 3110400000.,
(PID.TID 0000.0001) ># chkptFreq = 3110400000.,
(PID.TID 0000.0001) ># dumpFreq  = 311104000000.,
(PID.TID 0000.0001) >#
(PID.TID 0000.0001) ># taveFreq time average output frequency
(PID.TID 0000.0001) ># taveFreq has changed to 1 year output
(PID.TID 0000.0001) ># taveFreq  = 31104000.,
(PID.TID 0000.0001) ># ----------
(PID.TID 0000.0001) > pChkptFreq = 3110400000.,
(PID.TID 0000.0001) > chkptFreq  = 3110400000.,
(PID.TID 0000.0001) >#adjDumpFreq   = 311104000000.,
(PID.TID 0000.0001) >#dumpFreq   = 311104000000.,
(PID.TID 0000.0001) > adjDumpFreq   = 2628000.,
(PID.TID 0000.0001) > dumpFreq   = 2628000.,
(PID.TID 0000.0001) ># taveFreq has changed to 100 year output
(PID.TID 0000.0001) ># ----------
(PID.TID 0000.0001) >#taveFreq   = 3110400000.,
(PID.TID 0000.0001) ># Monitor frequency and relaxation timescale
(PID.TID 0000.0001) ># ----------
(PID.TID 0000.0001) > monitorFreq = 2628000.,
(PID.TID 0000.0001) > adjMonitorFreq = 2628000.,
(PID.TID 0000.0001) >#monitorFreq = 8640000.,
(PID.TID 0000.0001) > tauThetaClimRelax = 5184000.,
(PID.TID 0000.0001) > tauSaltClimRelax  = 7776000.,
(PID.TID 0000.0001) > periodicExternalForcing =.TRUE.,
(PID.TID 0000.0001) > externForcingPeriod = 2592000.,
(PID.TID 0000.0001) ># ----------
(PID.TID 0000.0001) ># externalForcingCycle the duration of the external forcing data cycle in seconds
(PID.TID 0000.0001) ># 300 years(9331200000) + 1 month(2592000)
(PID.TID 0000.0001) ># externForcingCycle = 9333792000.,
(PID.TID 0000.0001) ># 1 year (= 360 days)
(PID.TID 0000.0001) ># ----------
(PID.TID 0000.0001) > externForcingCycle = 31104000.,
(PID.TID 0000.0001) > pickupstrictlymatch =.False.,
(PID.TID 0000.0001) > &
(PID.TID 0000.0001) >
(PID.TID 0000.0001) ># PARM04: Gridding parameters
(PID.TID 0000.0001) ># ----------
(PID.TID 0000.0001) > &PARM04
(PID.TID 0000.0001) > usingSphericalPolarGrid =.TRUE.,
(PID.TID 0000.0001) ># Vertical resolution increased to 23(Sep 6th, 2013)
(PID.TID 0000.0001) ># ----------
(PID.TID 0000.0001) > delZ=10.,10.,15.,20.,20.,25.,35.,50.,75.,100.,150.,200.,275.,350.,415.,450.,500.,500.,500.,500.,500.,500.,500.,
(PID.TID 0000.0001) > ygOrigin = -90.,
(PID.TID 0000.0001) > delX = 128*2.8125,
(PID.TID 0000.0001) > delY = 64*2.8125,
(PID.TID 0000.0001) > &
(PID.TID 0000.0001) >
(PID.TID 0000.0001) ># PARM05: Input datasets
(PID.TID 0000.0001) ># ----------
(PID.TID 0000.0001) > &PARM05
(PID.TID 0000.0001) > bathyFile =      '../input/bathymetry/bathy.bin',
(PID.TID 0000.0001) > hydrogThetaFile ='../input/defaultfields/initial/lev_clim_temp_v3.bin',
(PID.TID 0000.0001) > hydrogSaltFile = '../input/defaultfields/initial/lev_clim_salt_v3.bin',
(PID.TID 0000.0001) > zonalWindFile =  '../input/defaultfields/atsocn/tren_mon_taux.bin',
(PID.TID 0000.0001) > meridWindFile =  '../input/defaultfields/atsocn/tren_mon_tauy.bin',
(PID.TID 0000.0001) > thetaClimFile =  '../input/defaultfields/atsocn/lev_mon_temp.bin',
(PID.TID 0000.0001) > saltClimFile =   '../input/pert_salt/southern_ocean/pert_so_salt_0.6.bin',
(PID.TID 0000.0001) > surfQFile =      '../input/defaultfields/atsocn/lshi_mon_qnet.bin',
(PID.TID 0000.0001) > EmPmRFile =      '../input/defaultfields/atsocn/lshi_mon_empmr.bin',
(PID.TID 0000.0001) > the_run_name =   'Global Biogeochemistry Model Spinup Base of Adjoint Study',
(PID.TID 0000.0001) > checkIniTemp= .False.,
(PID.TID 0000.0001) > checkIniSalt= .False.,
(PID.TID 0000.0001) > &
(PID.TID 0000.0001) 
(PID.TID 0000.0001)  INI_PARMS ; starts to read PARM01
(PID.TID 0000.0001)  INI_PARMS ; read PARM01 : OK
(PID.TID 0000.0001)  INI_PARMS ; starts to read PARM02
(PID.TID 0000.0001)  INI_PARMS ; read PARM02 : OK
(PID.TID 0000.0001)  INI_PARMS ; starts to read PARM03
(PID.TID 0000.0001)  INI_PARMS ; read PARM03 : OK
(PID.TID 0000.0001)  INI_PARMS ; starts to read PARM04
(PID.TID 0000.0001)  INI_PARMS ; read PARM04 : OK
(PID.TID 0000.0001)  INI_PARMS ; starts to read PARM05
(PID.TID 0000.0001)  INI_PARMS ; read PARM05 : OK
(PID.TID 0000.0001)  INI_PARMS: finished reading file "data"
(PID.TID 0000.0001)  PACKAGES_BOOT: opening data.pkg
(PID.TID 0000.0001)  OPEN_COPY_DATA_FILE: opening file data.pkg
(PID.TID 0000.0001) // =======================================================
(PID.TID 0000.0001) // Parameter file "data.pkg"
(PID.TID 0000.0001) // =======================================================
(PID.TID 0000.0001) ># Packages
(PID.TID 0000.0001) > &PACKAGES
(PID.TID 0000.0001) > useAUTODIFF=.TRUE.,
(PID.TID 0000.0001) > useECCO=.TRUE.,
(PID.TID 0000.0001) > useCTRL=.TRUE.,
(PID.TID 0000.0001) > useGMRedi=.TRUE.,
(PID.TID 0000.0001) > usePTRACERS=.TRUE.,
(PID.TID 0000.0001) > useGCHEM=.TRUE.,
(PID.TID 0000.0001) ># useMNC=.TRUE.,
(PID.TID 0000.0001) >#useDiagnostics=.FALSE.,
(PID.TID 0000.0001) > useKPP=.TRUE.,
(PID.TID 0000.0001) > &
(PID.TID 0000.0001) >
(PID.TID 0000.0001) 
(PID.TID 0000.0001)  PACKAGES_BOOT: finished reading data.pkg
(PID.TID 0000.0001)  PACKAGES_BOOT: On/Off package Summary
 --------  pkgs with a standard "usePKG" On/Off switch in "data.pkg":  --------
 pkg/kpp                  compiled   and   used ( useKPP                   = T )
 pkg/gmredi               compiled   and   used ( useGMRedi                = T )
 pkg/cal                  compiled   and   used ( useCAL                   = T )
 pkg/autodiff             compiled   and   used ( useAUTODIFF              = T )
 pkg/ecco                 compiled   and   used ( useECCO                  = T )
 pkg/ctrl                 compiled   and   used ( useCTRL                  = T )
 pkg/ptracers             compiled   and   used ( usePTRACERS              = T )
 pkg/gchem                compiled   and   used ( useGCHEM                 = T )
 -------- pkgs without standard "usePKG" On/Off switch in "data.pkg":  --------
 pkg/generic_advdiff      compiled   and   used ( useGAD                   = T )
 pkg/mom_common           compiled   and   used ( momStepping              = T )
 pkg/mom_vecinv           compiled but not used ( +vectorInvariantMomentum = F )
 pkg/mom_fluxform         compiled   and   used ( & not vectorInvariantMom = T )
 pkg/cd_code              compiled   and   used ( useCDscheme              = T )
 pkg/monitor              compiled   and   used ( monitorFreq > 0.         = T )
 pkg/debug                compiled but not used ( debugMode                = F )
 pkg/rw                   compiled   and   used
 pkg/mdsio                compiled   and   used
 pkg/autodiff             compiled   and   used
 pkg/cost                 compiled   and   used
(PID.TID 0000.0001)  PACKAGES_BOOT: End of package Summary
(PID.TID 0000.0001) 
(PID.TID 0000.0001) CAL_READPARMS: opening data.cal
(PID.TID 0000.0001)  OPEN_COPY_DATA_FILE: opening file data.cal
(PID.TID 0000.0001) // =======================================================
(PID.TID 0000.0001) // Parameter file "data.cal"
(PID.TID 0000.0001) // =======================================================
(PID.TID 0000.0001) >#
(PID.TID 0000.0001) ># *******************
(PID.TID 0000.0001) ># Calendar Parameters
(PID.TID 0000.0001) ># *******************
(PID.TID 0000.0001) > &CAL_NML
(PID.TID 0000.0001) > TheCalendar='gregorian',
(PID.TID 0000.0001) >#calendarDumps=.TRUE.,
(PID.TID 0000.0001) > calendarDumps=.FALSE.,
(PID.TID 0000.0001) ># TheCalendar='model',
(PID.TID 0000.0001) > startDate_1=19920101
(PID.TID 0000.0001) > startDate_2=120000,
(PID.TID 0000.0001) > &
(PID.TID 0000.0001) 
(PID.TID 0000.0001) CAL_READPARMS: finished reading data.cal
(PID.TID 0000.0001)  KPP_READPARMS: opening data.kpp
(PID.TID 0000.0001)  OPEN_COPY_DATA_FILE: opening file data.kpp
(PID.TID 0000.0001) // =======================================================
(PID.TID 0000.0001) // Parameter file "data.kpp"
(PID.TID 0000.0001) // =======================================================
(PID.TID 0000.0001) ># ***************
(PID.TID 0000.0001) ># Open boundaries
(PID.TID 0000.0001) ># ***************
(PID.TID 0000.0001) > &KPP_PARM01
(PID.TID 0000.0001) ># KPPwriteState   = .TRUE.,
(PID.TID 0000.0001) > &
(PID.TID 0000.0001) 
(PID.TID 0000.0001)  KPP_READPARMS ; starts to read KPP_PARM01
(PID.TID 0000.0001)  KPP_READPARMS ; read KPP_PARM01 : OK
(PID.TID 0000.0001)  KPP_READPARMS: finished reading data.kpp
(PID.TID 0000.0001)  GM_READPARMS: opening data.gmredi
(PID.TID 0000.0001)  OPEN_COPY_DATA_FILE: opening file data.gmredi
(PID.TID 0000.0001) // =======================================================
(PID.TID 0000.0001) // Parameter file "data.gmredi"
(PID.TID 0000.0001) // =======================================================
(PID.TID 0000.0001) ># from MOM
(PID.TID 0000.0001) ># GM_background_K: 	isopycnal diffusion coefficient
(PID.TID 0000.0001) ># GM_maxSlope:		max slope of isopycnals
(PID.TID 0000.0001) ># GM_Scrit:		transition for scaling diffusion coefficient
(PID.TID 0000.0001) ># GM_Sd:		half width scaling for diffusion coefficient
(PID.TID 0000.0001) ># real background diff:	horizontal diffusion
(PID.TID 0000.0001) >
(PID.TID 0000.0001) ># ifdef GM_VISBECK_VARIABLE_K, include following in GM_PARM01
(PID.TID 0000.0001) ># GM_Visbeck_alpha   = 0.,
(PID.TID 0000.0001) ># GM_Visbeck_length  = 2.e+5,
(PID.TID 0000.0001) ># GM_Visbeck_depth   = 1.e+3,
(PID.TID 0000.0001) ># GM_Visbeck_maxval_K= 2.5e+3,
(PID.TID 0000.0001) >
(PID.TID 0000.0001) > &GM_PARM01
(PID.TID 0000.0001) >  GM_background_K    = 1.e+3,
(PID.TID 0000.0001) >  GM_taper_scheme    = 'gkw91',
(PID.TID 0000.0001) >  GM_maxSlope        = 1.e-2,
(PID.TID 0000.0001) >  GM_Kmin_horiz      = 100.,
(PID.TID 0000.0001) >  GM_Scrit           = 4.e-3,
(PID.TID 0000.0001) >  GM_Sd              = 1.e-3,
(PID.TID 0000.0001) > &
(PID.TID 0000.0001) >
(PID.TID 0000.0001) >
(PID.TID 0000.0001) 
(PID.TID 0000.0001)  GM_READPARMS: finished reading data.gmredi
(PID.TID 0000.0001)  PTRACERS_READPARMS: opening data.ptracers
(PID.TID 0000.0001)  OPEN_COPY_DATA_FILE: opening file data.ptracers
(PID.TID 0000.0001) // =======================================================
(PID.TID 0000.0001) // Parameter file "data.ptracers"
(PID.TID 0000.0001) // =======================================================
(PID.TID 0000.0001) > &PTRACERS_PARM01
(PID.TID 0000.0001) > PTRACERS_numInUse = 9,
(PID.TID 0000.0001) > PTRACERS_Iter0 = 3600000,
(PID.TID 0000.0001) ># Tracer #1 - DIC
(PID.TID 0000.0001) > PTRACERS_names(1) ='dic',
(PID.TID 0000.0001) > PTRACERS_long_names(1) ='Dissolved Inorganic Carbon',
(PID.TID 0000.0001) > PTRACERS_units(1) ='mol C/m^3',
(PID.TID 0000.0001) > PTRACERS_advScheme(1) =77,
(PID.TID 0000.0001) > PTRACERS_diffKh(1) = 0.E3,
(PID.TID 0000.0001) > PTRACERS_diffKr(1) = 3.E-5,
(PID.TID 0000.0001) > PTRACERS_useGMRedi(1) =.TRUE. ,
(PID.TID 0000.0001) > PTRACERS_useKPP(1) =.TRUE. ,
(PID.TID 0000.0001) > PTRACERS_initialFile(1) =' ',
(PID.TID 0000.0001) ># - use F95 syntax (to be converted with -DNML_EXTENDED_F77 if needed)
(PID.TID 0000.0001) > PTRACERS_ref(1:15,1) = 2.0282, 2.0609, 2.1206, 2.1581,
(PID.TID 0000.0001) >                     2.1904, 2.2188, 2.2474, 2.2699,
(PID.TID 0000.0001) >                     2.2792, 2.2814, 2.2815, 2.2806,
(PID.TID 0000.0001) >                     2.2800, 2.2760, 2.2758,
(PID.TID 0000.0001) > PTRACERS_EvPrRn(1) = 0.,
(PID.TID 0000.0001) >
(PID.TID 0000.0001) ># Tracer #2 - Alkalinity
(PID.TID 0000.0001) > PTRACERS_names(2) ='alk',
(PID.TID 0000.0001) > PTRACERS_long_names(2) ='Alkalinity',
(PID.TID 0000.0001) > PTRACERS_units(2) ='mol eq/m^3',
(PID.TID 0000.0001) > PTRACERS_advScheme(2) = 77,
(PID.TID 0000.0001) > PTRACERS_diffKh(2) = 0.E3,
(PID.TID 0000.0001) > PTRACERS_diffKr(2) = 3.E-5,
(PID.TID 0000.0001) > PTRACERS_useGMRedi(2) =.TRUE. ,
(PID.TID 0000.0001) > PTRACERS_useKPP(2) =.TRUE. ,
(PID.TID 0000.0001) > PTRACERS_initialFile(2) =' ',
(PID.TID 0000.0001) ># - use F95 syntax (to be converted with -DNML_EXTENDED_F77 if needed)
(PID.TID 0000.0001) > PTRACERS_ref(1:15,2) = 2.3086, 2.3149, 2.3164, 2.3112,
(PID.TID 0000.0001) >                     2.3098, 2.3160, 2.3313, 2.3517,
(PID.TID 0000.0001) >                     2.3667, 2.3761, 2.3832, 2.3862,
(PID.TID 0000.0001) >                     2.3881, 2.3863, 2.3867,
(PID.TID 0000.0001) > PTRACERS_EvPrRn(2) = 0.,
(PID.TID 0000.0001) >
(PID.TID 0000.0001) ># Tracer #3 - Phosphate
(PID.TID 0000.0001) > PTRACERS_names(3) ='po4',
(PID.TID 0000.0001) > PTRACERS_long_names(3) ='Phosphate',
(PID.TID 0000.0001) > PTRACERS_units(3) ='mol P/m^3',
(PID.TID 0000.0001) > PTRACERS_advScheme(3) = 77,
(PID.TID 0000.0001) > PTRACERS_diffKh(3) = 0.E3,
(PID.TID 0000.0001) > PTRACERS_diffKr(3) = 3.E-5,
(PID.TID 0000.0001) > PTRACERS_useGMRedi(3) =.TRUE. ,
(PID.TID 0000.0001) > PTRACERS_useKPP(3) =.TRUE. ,
(PID.TID 0000.0001) > PTRACERS_initialFile(3) =' ',
(PID.TID 0000.0001) ># - use F95 syntax (to be converted with -DNML_EXTENDED_F77 if needed)
(PID.TID 0000.0001) > PTRACERS_ref(1:15,3) = 0.5438E-3, 0.7821E-3, 1.1335E-3, 1.4913E-3,
(PID.TID 0000.0001) >                     1.8606E-3, 2.1986E-3, 2.3966E-3, 2.4187E-3,
(PID.TID 0000.0001) >                     2.4046E-3, 2.3291E-3, 2.2922E-3, 2.2886E-3,
(PID.TID 0000.0001) >                     2.2608E-3, 2.2356E-3, 2.2296E-3,
(PID.TID 0000.0001) ># PTRACERS_EvPrRn(3) = 0.,
(PID.TID 0000.0001) >
(PID.TID 0000.0001) ># Tracer #4 - Dissolved Organic Phosphorus
(PID.TID 0000.0001) > PTRACERS_names(4) ='dop',
(PID.TID 0000.0001) > PTRACERS_long_names(4) ='Dissolved Organic Phosphorus',
(PID.TID 0000.0001) > PTRACERS_units(4) ='mol P/m^3',
(PID.TID 0000.0001) > PTRACERS_advScheme(4) = 77,
(PID.TID 0000.0001) > PTRACERS_diffKh(4) = 0.E3,
(PID.TID 0000.0001) > PTRACERS_diffKr(4) = 3.E-5,
(PID.TID 0000.0001) > PTRACERS_useGMRedi(4) =.TRUE.
(PID.TID 0000.0001) > PTRACERS_useKPP(4) =.TRUE. ,
(PID.TID 0000.0001) > PTRACERS_initialFile(4) =' ',
(PID.TID 0000.0001) ># - use F95 syntax (to be converted with -DNML_EXTENDED_F77 if needed)
(PID.TID 0000.0001) > PTRACERS_ref(1:15,4) = 15*0.,
(PID.TID 0000.0001) ># PTRACERS_EvPrRn(4) = 0.,
(PID.TID 0000.0001) >
(PID.TID 0000.0001) ># Tracer #5 - Dissolved Oxygen
(PID.TID 0000.0001) > PTRACERS_names(5) ='o2',
(PID.TID 0000.0001) > PTRACERS_long_names(5) ='Dissolved Oxygen',
(PID.TID 0000.0001) > PTRACERS_units(5) ='mol O/m^3',
(PID.TID 0000.0001) > PTRACERS_advScheme(5) = 77,
(PID.TID 0000.0001) > PTRACERS_diffKh(5) = 0.E3,
(PID.TID 0000.0001) > PTRACERS_diffKr(5) = 3.E-5,
(PID.TID 0000.0001) > PTRACERS_useGMRedi(5) =.TRUE.
(PID.TID 0000.0001) > PTRACERS_useKPP(5) =.TRUE. ,
(PID.TID 0000.0001) > PTRACERS_initialFile(5) =' ',
(PID.TID 0000.0001) ># - use F95 syntax (to be converted with -DNML_EXTENDED_F77 if needed)
(PID.TID 0000.0001) > PTRACERS_ref(1:15,5) = 0.2457, 0.2336, 0.1975, 0.1729,
(PID.TID 0000.0001) >                     0.1591, 0.1503, 0.1424, 0.1445,
(PID.TID 0000.0001) >                     0.1549, 0.1661, 0.1774, 0.1863,
(PID.TID 0000.0001) >                     0.1925, 0.2021, 0.2051,
(PID.TID 0000.0001) ># PTRACERS_EvPrRn(5) = 0.,
(PID.TID 0000.0001) >
(PID.TID 0000.0001) ># Tracer #6 - Dissolved Iron(Fe)
(PID.TID 0000.0001) > PTRACERS_names(6) ='fe',
(PID.TID 0000.0001) > PTRACERS_long_names(6) ='Dissolved Fe',
(PID.TID 0000.0001) > PTRACERS_units(6) ='mol Fe/m^3',
(PID.TID 0000.0001) > PTRACERS_advScheme(6) = 77,
(PID.TID 0000.0001) > PTRACERS_diffKh(6) = 0.E3,
(PID.TID 0000.0001) > PTRACERS_diffKr(6) = 3.E-5,
(PID.TID 0000.0001) > PTRACERS_useGMRedi(6) =.TRUE.
(PID.TID 0000.0001) > PTRACERS_useKPP(6) =.TRUE. ,
(PID.TID 0000.0001) > PTRACERS_initialFile(6) =' ',
(PID.TID 0000.0001) ># - use F95 syntax (to be converted with -DNML_EXTENDED_F77 if needed)
(PID.TID 0000.0001) >
(PID.TID 0000.0001) ># Tracer #7 - Preformed Oxygen
(PID.TID 0000.0001) > PTRACERS_names(7) ='o2pre',
(PID.TID 0000.0001) > PTRACERS_long_names(7) ='Preformed Dissolved Oxygen',
(PID.TID 0000.0001) > PTRACERS_units(7) ='mol O/m^3',
(PID.TID 0000.0001) > PTRACERS_advScheme(7) = 77,
(PID.TID 0000.0001) > PTRACERS_diffKh(7) = 0.E3,
(PID.TID 0000.0001) > PTRACERS_diffKr(7) = 3.E-5,
(PID.TID 0000.0001) > PTRACERS_useGMRedi(7) =.TRUE.
(PID.TID 0000.0001) > PTRACERS_useKPP(7) =.TRUE. ,
(PID.TID 0000.0001) > PTRACERS_initialFile(7) =' ',
(PID.TID 0000.0001) >
(PID.TID 0000.0001) ># Tracer #8 - Preformed Alkalinity
(PID.TID 0000.0001) > PTRACERS_names(8) ='alkpre',
(PID.TID 0000.0001) > PTRACERS_long_names(8) ='Preformed alkalinity',
(PID.TID 0000.0001) > PTRACERS_units(8) ='moleq/m^3',
(PID.TID 0000.0001) > PTRACERS_advScheme(8) = 77,
(PID.TID 0000.0001) > PTRACERS_diffKh(8) = 0.E3,
(PID.TID 0000.0001) > PTRACERS_diffKr(8) = 3.E-5,
(PID.TID 0000.0001) > PTRACERS_useGMRedi(8) =.TRUE.
(PID.TID 0000.0001) > PTRACERS_useKPP(8) =.TRUE. ,
(PID.TID 0000.0001) > PTRACERS_initialFile(8) =' ',
(PID.TID 0000.0001) >
(PID.TID 0000.0001) ># Tracer #9 - Preformed DIC
(PID.TID 0000.0001) > PTRACERS_names(9) ='dicpre',
(PID.TID 0000.0001) > PTRACERS_long_names(9) ='Preformed DIC',
(PID.TID 0000.0001) > PTRACERS_units(9) ='mol O/m^3',
(PID.TID 0000.0001) > PTRACERS_advScheme(9) = 77,
(PID.TID 0000.0001) > PTRACERS_diffKh(9) = 0.E3,
(PID.TID 0000.0001) > PTRACERS_diffKr(9) = 3.E-5,
(PID.TID 0000.0001) > PTRACERS_useGMRedi(9) =.TRUE.
(PID.TID 0000.0001) > PTRACERS_useKPP(9) =.TRUE. ,
(PID.TID 0000.0001) > PTRACERS_initialFile(9) =' ',
(PID.TID 0000.0001) > &
(PID.TID 0000.0001) 
(PID.TID 0000.0001)  PTRACERS_READPARMS: finished reading data.ptracers
(PID.TID 0000.0001)  GCHEM_READPARMS: opening data.gchem
(PID.TID 0000.0001)  OPEN_COPY_DATA_FILE: opening file data.gchem
(PID.TID 0000.0001) // =======================================================
(PID.TID 0000.0001) // Parameter file "data.gchem"
(PID.TID 0000.0001) // =======================================================
(PID.TID 0000.0001) > &GCHEM_PARM01
(PID.TID 0000.0001) >  useDIC=.TRUE.,
(PID.TID 0000.0001) >  nsubtime=1,
(PID.TID 0000.0001) > &
(PID.TID 0000.0001) 
(PID.TID 0000.0001)  GCHEM_READPARMS: finished reading data.gchem
(PID.TID 0000.0001)  DIC_READPARMS: opening data.dic
(PID.TID 0000.0001)  OPEN_COPY_DATA_FILE: opening file data.dic
(PID.TID 0000.0001) // =======================================================
(PID.TID 0000.0001) // Parameter file "data.dic"
(PID.TID 0000.0001) // =======================================================
(PID.TID 0000.0001) ># DIC Package Parameters
(PID.TID 0000.0001) > &ABIOTIC_PARMS
(PID.TID 0000.0001) > &
(PID.TID 0000.0001) >
(PID.TID 0000.0001) ># Iron cycle model parameters
(PID.TID 0000.0001) ># ----------
(PID.TID 0000.0001) > &BIOTIC_PARMS
(PID.TID 0000.0001) >  alpfe = 1.0E-2,
(PID.TID 0000.0001) >#  alpfe = 0.7E-2,
(PID.TID 0000.0001) >#  KFE = 1.2E-7,
(PID.TID 0000.0001) >#  KFE = 0.84E-7,
(PID.TID 0000.0001) >#  KScav = 6.11E-9,
(PID.TID 0000.0001) >#  KScav = 4.28E-9,
(PID.TID 0000.0001) >  alphaUniform = 2.0e-10,
(PID.TID 0000.0001) >  rainRatioUniform = 5.e-2,
(PID.TID 0000.0001) >  KDOPRemin = 1.6E-8,
(PID.TID 0000.0001) >  KRemin = 0.858,
(PID.TID 0000.0001) > &
(PID.TID 0000.0001) ># DIC forcing files
(PID.TID 0000.0001) ># ----------
(PID.TID 0000.0001) > &DIC_FORCING
(PID.TID 0000.0001) >  DIC_iceFile=   '../input/defaultfields/dic/fice.bin',
(PID.TID 0000.0001) >  DIC_windFile=  '../input/defaultfields/dic/tren_speed.bin',
(PID.TID 0000.0001) >  DIC_silicaFile='../input/defaultfields/dic/sillev1.bin',
(PID.TID 0000.0001) >  DIC_ironFile=  '../input/defaultfields/feflux/feflux_luo03.bin',
(PID.TID 0000.0001) > &
(PID.TID 0000.0001) 
(PID.TID 0000.0001)  DIC_READPARMS: finished reading data.dic
(PID.TID 0000.0001) 
(PID.TID 0000.0001) // ===================================
(PID.TID 0000.0001) // DIC package parameters :
(PID.TID 0000.0001) // ===================================
(PID.TID 0000.0001) permil = /* Ref. density to convert mol/m3 to mol/kg */
(PID.TID 0000.0001)                 9.760858955588092E-04
(PID.TID 0000.0001)     ;
(PID.TID 0000.0001) Pa2Atm = /* Atmosph. pressure conversion coeff (to Atm) */
(PID.TID 0000.0001)                 1.013250000000000E+05
(PID.TID 0000.0001)     ;
(PID.TID 0000.0001) DOPfraction = /* Fraction of new production going to DOP */
(PID.TID 0000.0001)                 6.700000000000000E-01
(PID.TID 0000.0001)     ;
(PID.TID 0000.0001) KDOPRemin = /* DOP remineralization rate (1/s) */
(PID.TID 0000.0001)                 1.600000000000000E-08
(PID.TID 0000.0001)     ;
(PID.TID 0000.0001) KRemin = /* Remin power law coeff. */
(PID.TID 0000.0001)                 8.580000000000000E-01
(PID.TID 0000.0001)     ;
(PID.TID 0000.0001) zcrit = /* Minimum depth for biological activity (m) */
(PID.TID 0000.0001)                 5.000000000000000E+02
(PID.TID 0000.0001)     ;
(PID.TID 0000.0001) O2crit = /* Critical oxygen level (mol/m3) */
(PID.TID 0000.0001)                 4.000000000000000E-03
(PID.TID 0000.0001)     ;
(PID.TID 0000.0001) R_OP = /* Stochiometric ratio R_OP */
(PID.TID 0000.0001)                -1.700000000000000E+02
(PID.TID 0000.0001)     ;
(PID.TID 0000.0001) R_CP = /* Stochiometric ratio R_CP */
(PID.TID 0000.0001)                 1.170000000000000E+02
(PID.TID 0000.0001)     ;
(PID.TID 0000.0001) R_NP = /* Stochiometric ratio R_NP */
(PID.TID 0000.0001)                 1.600000000000000E+01
(PID.TID 0000.0001)     ;
(PID.TID 0000.0001) R_FeP = /* Stochiometric ratio R_FeP */
(PID.TID 0000.0001)                 4.680000000000000E-04
(PID.TID 0000.0001)     ;
(PID.TID 0000.0001) zca = /* Scale depth for CaCO3 remineralization (m) */
(PID.TID 0000.0001)                 3.500000000000000E+03
(PID.TID 0000.0001)     ;
(PID.TID 0000.0001) parfrac = /* Fraction of Qsw that is PAR */
(PID.TID 0000.0001)                 4.000000000000000E-01
(PID.TID 0000.0001)     ;
(PID.TID 0000.0001) k0 = /* Light attentuation coefficient (1/m) */
(PID.TID 0000.0001)                 2.000000000000000E-02
(PID.TID 0000.0001)     ;
(PID.TID 0000.0001) lit0 = /* Half saturation light constant (W/m2) */
(PID.TID 0000.0001)                 3.000000000000000E+01
(PID.TID 0000.0001)     ;
(PID.TID 0000.0001) KPO4 = /* Half saturation phosphate constant (mol/m3) */
(PID.TID 0000.0001)                 5.000000000000000E-04
(PID.TID 0000.0001)     ;
(PID.TID 0000.0001) KFE = /* Half saturation fe constant (mol/m3) */
(PID.TID 0000.0001)                 1.200000000000000E-07
(PID.TID 0000.0001)     ;
(PID.TID 0000.0001) alpfe = /* Solubility of aeolian fe */
(PID.TID 0000.0001)                 1.000000000000000E-02
(PID.TID 0000.0001)     ;
(PID.TID 0000.0001) freefemax = /* Max solubility of free iron (mol/m3) */
(PID.TID 0000.0001)                 3.000000000000000E-07
(PID.TID 0000.0001)     ;
(PID.TID 0000.0001) KScav = /* Iron scavenging rate */
(PID.TID 0000.0001)                 6.108539094650206E-09
(PID.TID 0000.0001)     ;
(PID.TID 0000.0001) ligand_stab = /* Ligand-free iron stability constant (m3/mol) */
(PID.TID 0000.0001)                 1.000000000000000E+08
(PID.TID 0000.0001)     ;
(PID.TID 0000.0001) ligand_tot = /* Total free ligand  (mol/m3) */
(PID.TID 0000.0001)                 1.000000000000000E-06
(PID.TID 0000.0001)     ;
(PID.TID 0000.0001) alphaUniform = /* Timescale for biological activity */
(PID.TID 0000.0001)                 2.000000000000000E-10
(PID.TID 0000.0001)     ;
(PID.TID 0000.0001) rainRatioUniform= /* Inorganic/organic carbon rain ratio */
(PID.TID 0000.0001)                 5.000000000000000E-02
(PID.TID 0000.0001)     ;
(PID.TID 0000.0001) QSW_underice  =  /* Flag for Qsw under Sea-Ice (i.e. SI fract included) */
(PID.TID 0000.0001)                   F
(PID.TID 0000.0001)     ;
(PID.TID 0000.0001) DIC_windFile =  /* File name of wind speeds */
(PID.TID 0000.0001)               '../input/defaultfields/dic/tren_speed.bin'
(PID.TID 0000.0001)     ;
(PID.TID 0000.0001) DIC_atmospFile=  /* File name of atmospheric pressure*/
(PID.TID 0000.0001)               ''
(PID.TID 0000.0001)     ;
(PID.TID 0000.0001) DIC_iceFile =  /* File name of seaice fraction */
(PID.TID 0000.0001)               '../input/defaultfields/dic/fice.bin'
(PID.TID 0000.0001)     ;
(PID.TID 0000.0001) DIC_ironFile =  /* File name of aeolian iron flux */
(PID.TID 0000.0001)               '../input/defaultfields/feflux/feflux_luo03.bin'
(PID.TID 0000.0001)     ;
(PID.TID 0000.0001) DIC_silicaFile=  /* File name of surface silica */
(PID.TID 0000.0001)               '../input/defaultfields/dic/sillev1.bin'
(PID.TID 0000.0001)     ;
(PID.TID 0000.0001) DIC_parFile=  /* File name of photosynthetically available radiation */
(PID.TID 0000.0001)               ''
(PID.TID 0000.0001)     ;
(PID.TID 0000.0001) DIC_forcingPeriod = /* Periodic forcing parameter specific for DIC (s) */
(PID.TID 0000.0001)                 2.592000000000000E+06
(PID.TID 0000.0001)     ;
(PID.TID 0000.0001) DIC_forcingCycle = /* Periodic forcing parameter specific for DIC (s) */
(PID.TID 0000.0001)                 3.110400000000000E+07
(PID.TID 0000.0001)     ;
(PID.TID 0000.0001) dic_int1 =  /*  */
(PID.TID 0000.0001)                       0
(PID.TID 0000.0001)     ;
(PID.TID 0000.0001) dic_int2 =  /*  */
(PID.TID 0000.0001)                       0
(PID.TID 0000.0001)     ;
(PID.TID 0000.0001) dic_int3 =  /*  */
(PID.TID 0000.0001)                       0
(PID.TID 0000.0001)     ;
(PID.TID 0000.0001) dic_int4 =  /*  */
(PID.TID 0000.0001)                       0
(PID.TID 0000.0001)     ;
(PID.TID 0000.0001) dic_pCO2 = /* Atmospheric pCO2 to be read in data.dic */
(PID.TID 0000.0001)                 2.780000000000000E-04
(PID.TID 0000.0001)     ;
(PID.TID 0000.0001) GCHEM_TR_REGISTER:  Start registering GCHEM tracers
(PID.TID 0000.0001)   DIC_TR_REGISTER:  number of DIC tracers=    6
(PID.TID 0000.0001)   DIC_TR_REGISTER:   starting at pTrc num=    1
(PID.TID 0000.0001)   DIC_TR_REGISTER:  Numb. Trac & SepForc Trac:    6    6
(PID.TID 0000.0001) GCHEM_TR_REGISTER:  Numb. Trac & SepForc Trac:    6    6
(PID.TID 0000.0001) 
(PID.TID 0000.0001) AUTODIFF_READPARMS: opening data.autodiff
(PID.TID 0000.0001)  OPEN_COPY_DATA_FILE: opening file data.autodiff
(PID.TID 0000.0001) // =======================================================
(PID.TID 0000.0001) // Parameter file "data.autodiff"
(PID.TID 0000.0001) // =======================================================
(PID.TID 0000.0001) ># =========================
(PID.TID 0000.0001) ># pkg AUTODIFF parameters :
(PID.TID 0000.0001) ># =========================
(PID.TID 0000.0001) >#  inAdExact :: get an exact adjoint (no approximation) (def=.True.)
(PID.TID 0000.0001) >#
(PID.TID 0000.0001) > &AUTODIFF_PARM01
(PID.TID 0000.0001) >#useGGL90inAdMode = .FALSE.,
(PID.TID 0000.0001) > useKPPinAdMode = .FALSE.,
(PID.TID 0000.0001) > useGMRediInAdMode = .FALSE.,
(PID.TID 0000.0001) >#inAdExact = .FALSE.,
(PID.TID 0000.0001) > viscFacInAd = 2.,
(PID.TID 0000.0001) > &
(PID.TID 0000.0001) 
(PID.TID 0000.0001) AUTODIFF_READPARMS: finished reading data.autodiff
(PID.TID 0000.0001) // ===================================
(PID.TID 0000.0001) // AUTODIFF parameters :
(PID.TID 0000.0001) // ===================================
(PID.TID 0000.0001) inAdExact = /* get an exact adjoint (no approximation) */
(PID.TID 0000.0001)                   T
(PID.TID 0000.0001)     ;
(PID.TID 0000.0001) useKPPinAdMode = /* use KPP in adjoint mode */
(PID.TID 0000.0001)                   F
(PID.TID 0000.0001)     ;
(PID.TID 0000.0001) useGMRediInAdMode = /* use GMRedi in adjoint mode */
(PID.TID 0000.0001)                   F
(PID.TID 0000.0001)     ;
(PID.TID 0000.0001) useSEAICEinAdMode = /* use SEAICE in adjoint mode */
(PID.TID 0000.0001)                   F
(PID.TID 0000.0001)     ;
(PID.TID 0000.0001) useGGL90inAdMode = /* use GGL90 in adjoint mode */
(PID.TID 0000.0001)                   F
(PID.TID 0000.0001)     ;
(PID.TID 0000.0001) useSALT_PLUMEinAdMode = /* use SALT_PLUME in adjoint mode */
(PID.TID 0000.0001)                   F
(PID.TID 0000.0001)     ;
(PID.TID 0000.0001) dumpAdVarExch = /* control adexch before dumpinp */
(PID.TID 0000.0001)                       2
(PID.TID 0000.0001)     ;
(PID.TID 0000.0001) mon_AdVarExch = /* control adexch before monitor */
(PID.TID 0000.0001)                       2
(PID.TID 0000.0001)     ;
(PID.TID 0000.0001) viscFacInAd = /* viscosity factor for adjoint */
(PID.TID 0000.0001)                 2.000000000000000E+00
(PID.TID 0000.0001)     ;
(PID.TID 0000.0001) 
(PID.TID 0000.0001) OPTIM_READPARMS: opening data.optim
(PID.TID 0000.0001)  OPEN_COPY_DATA_FILE: opening file data.optim
(PID.TID 0000.0001) // =======================================================
(PID.TID 0000.0001) // Parameter file "data.optim"
(PID.TID 0000.0001) // =======================================================
(PID.TID 0000.0001) >#
(PID.TID 0000.0001) ># ********************************
(PID.TID 0000.0001) ># Off-line optimization parameters
(PID.TID 0000.0001) ># ********************************
(PID.TID 0000.0001) > &OPTIM
(PID.TID 0000.0001) > optimcycle=0,
(PID.TID 0000.0001) > &
(PID.TID 0000.0001) 
(PID.TID 0000.0001) OPTIM_READPARMS: finished reading data.optim
(PID.TID 0000.0001) CTRL_READPARMS: opening data.ctrl
(PID.TID 0000.0001)  OPEN_COPY_DATA_FILE: opening file data.ctrl
(PID.TID 0000.0001) // =======================================================
(PID.TID 0000.0001) // Parameter file "data.ctrl"
(PID.TID 0000.0001) // =======================================================
(PID.TID 0000.0001) ># *********************
(PID.TID 0000.0001) ># ECCO control variables
(PID.TID 0000.0001) ># *********************
(PID.TID 0000.0001) > &ctrl_nml
(PID.TID 0000.0001) > doSinglePrecTapelev=.TRUE.,
(PID.TID 0000.0001) >#to start from given xx*00.data files
(PID.TID 0000.0001) >  doinitxx = .FALSE.,
(PID.TID 0000.0001) >  doMainUnpack = .FALSE.,
(PID.TID 0000.0001) >#to start from given ecco_ctrl... files
(PID.TID 0000.0001) ># doinitxx = .FALSE.,
(PID.TID 0000.0001) > &
(PID.TID 0000.0001) >#
(PID.TID 0000.0001) ># *********************
(PID.TID 0000.0001) ># names for ctrl_pack/unpack
(PID.TID 0000.0001) ># *********************
(PID.TID 0000.0001) > &ctrl_packnames
(PID.TID 0000.0001) > &
(PID.TID 0000.0001) >#
(PID.TID 0000.0001) ># *********************
(PID.TID 0000.0001) ># names for CTRL_GENARR2D,3D CTRL_GENTIM2D
(PID.TID 0000.0001) ># *********************
(PID.TID 0000.0001) > &CTRL_NML_GENARR
(PID.TID 0000.0001) >#
(PID.TID 0000.0001) >#xx_gentim3d_weight(1) = 'wt_ones.data',
(PID.TID 0000.0001) >#xx_gentim3d_file(1)='xx_ptr01',
(PID.TID 0000.0001) >#xx_gentim3d_startdate1(1)=19920101,
(PID.TID 0000.0001) >#xx_gentim3d_startdate2(1)=60000,
(PID.TID 0000.0001) >#xx_gentim3d_period(1)=1209600.0,
(PID.TID 0000.0001) >#mult_gentim3d(1) = 0.,
(PID.TID 0000.0001) >
(PID.TID 0000.0001) >#
(PID.TID 0000.0001) >#xx_gentim2d_weight(2) = 'wt_ones.data',
(PID.TID 0000.0001) >#xx_gentim2d_file(2)='xx_tauu',
(PID.TID 0000.0001) >#xx_gentim2d_startdate1(2)=  19920101,
(PID.TID 0000.0001) >#xx_gentim2d_startdate2(2)=60000,
(PID.TID 0000.0001) >#xx_gentim2d_period(2)=1209600.0,
(PID.TID 0000.0001) >#mult_gentim2d(2) = 0.,
(PID.TID 0000.0001) >#
(PID.TID 0000.0001) >#xx_gentim2d_weight(3) = 'wt_ones.data',
(PID.TID 0000.0001) >#xx_gentim2d_file(3)='xx_tauv',
(PID.TID 0000.0001) >#xx_gentim2d_startdate1(3)=  19920101,
(PID.TID 0000.0001) >#xx_gentim2d_startdate2(3)=60000,
(PID.TID 0000.0001) >#xx_gentim2d_period(3)=1209600.0,
(PID.TID 0000.0001) >#mult_gentim2d(3) = 0.,
(PID.TID 0000.0001) >#
(PID.TID 0000.0001) >#xx_gentim2d_weight(4) = 'wt_ones.data',
(PID.TID 0000.0001) >#xx_gentim2d_file(4)='xx_qnet',
(PID.TID 0000.0001) >#xx_gentim2d_startdate1(4)=  19920101,
(PID.TID 0000.0001) >#xx_gentim2d_startdate2(4)=60000,
(PID.TID 0000.0001) >#xx_gentim2d_period(4)=1209600.0,
(PID.TID 0000.0001) >#mult_gentim2d(4) = 0.,
(PID.TID 0000.0001) >#
(PID.TID 0000.0001) >#xx_gentim2d_weight(5) = 'wt_ones.data',
(PID.TID 0000.0001) >#xx_gentim2d_file(5)='xx_empmr',
(PID.TID 0000.0001) >#xx_gentim2d_startdate1(5)=  19920101,
(PID.TID 0000.0001) >#xx_gentim2d_startdate2(5)=60000,
(PID.TID 0000.0001) >#xx_gentim2d_period(5)=1209600.0,
(PID.TID 0000.0001) >#mult_gentim2d(5) = 0.,
(PID.TID 0000.0001) >#
(PID.TID 0000.0001) >#xx_genarr3d_weight(1) = 'wt_ones.data',
(PID.TID 0000.0001) >#xx_genarr3d_file(1)='xx_kapredi',
(PID.TID 0000.0001) >#mult_genarr3d(1) = 0.,
(PID.TID 0000.0001) >#
(PID.TID 0000.0001) >#xx_genarr3d_weight(2) = 'wt_ones.data',
(PID.TID 0000.0001) >#xx_genarr3d_file(2)='xx_diffkr',
(PID.TID 0000.0001) >#mult_genarr3d(2) = 0.,
(PID.TID 0000.0001) >#
(PID.TID 0000.0001) >#xx_genarr3d_weight(3) = 'wt_ones.data',
(PID.TID 0000.0001) >#xx_genarr3d_file(3)='xx_kapgm',
(PID.TID 0000.0001) >#mult_genarr3d(3) = 0.,
(PID.TID 0000.0001) >#
(PID.TID 0000.0001) > &
(PID.TID 0000.0001) >
(PID.TID 0000.0001) >
(PID.TID 0000.0001) >
(PID.TID 0000.0001) 
(PID.TID 0000.0001) CTRL_READPARMS: finished reading data.ctrl
(PID.TID 0000.0001) COST_READPARMS: opening data.cost
(PID.TID 0000.0001)  OPEN_COPY_DATA_FILE: opening file data.cost
(PID.TID 0000.0001) // =======================================================
(PID.TID 0000.0001) // Parameter file "data.cost"
(PID.TID 0000.0001) // =======================================================
(PID.TID 0000.0001) >#
(PID.TID 0000.0001) >#
(PID.TID 0000.0001) ># ******************
(PID.TID 0000.0001) ># ECCO cost function
(PID.TID 0000.0001) ># ******************
(PID.TID 0000.0001) > &COST_NML
(PID.TID 0000.0001) >#
(PID.TID 0000.0001) >#mult_tracer  = 1.,
(PID.TID 0000.0001) >#mult_test    = 1.,
(PID.TID 0000.0001) >#mult_atl     = 1.,
(PID.TID 0000.0001) > &
(PID.TID 0000.0001) 
(PID.TID 0000.0001) COST_READPARMS: finished reading data.cost
(PID.TID 0000.0001) ECCO_READPARMS: opening data.ecco
(PID.TID 0000.0001)  OPEN_COPY_DATA_FILE: opening file data.ecco
(PID.TID 0000.0001) // =======================================================
(PID.TID 0000.0001) // Parameter file "data.ecco"
(PID.TID 0000.0001) // =======================================================
(PID.TID 0000.0001) ># *******************
(PID.TID 0000.0001) ># ECCO cost functions
(PID.TID 0000.0001) ># *******************
(PID.TID 0000.0001) > &ECCO_COST_NML
(PID.TID 0000.0001) > &
(PID.TID 0000.0001) ># ***************************
(PID.TID 0000.0001) ># ECCO generic cost functions
(PID.TID 0000.0001) ># ***************************
(PID.TID 0000.0001) > &ECCO_GENCOST_NML
(PID.TID 0000.0001) > gencost_name(1) = 'O2test',
(PID.TID 0000.0001) > gencost_barfile(1) = 'm_boxmean_ptracer',
(PID.TID 0000.0001) > gencost_avgperiod(1) = 'month',
(PID.TID 0000.0001) > gencost_itracer(1) = 5,
(PID.TID 0000.0001) > gencost_msk_is3d(1)=.TRUE.,
(PID.TID 0000.0001) > gencost_outputlevel(1) = 1,
(PID.TID 0000.0001) > gencost_mask(1) = 'msk_etp',
(PID.TID 0000.0001) >#gencost_mask(1) = 'msk_np',
(PID.TID 0000.0001) > mult_gencost(1) = 1.0D9,
(PID.TID 0000.0001) >#
(PID.TID 0000.0001) > &
(PID.TID 0000.0001) >#
(PID.TID 0000.0001) 
(PID.TID 0000.0001) ECCO_READPARMS: finished reading #1: ecco_cost_nml
(PID.TID 0000.0001) ECCO_READPARMS: finished reading #2: ecco_gencost_nml
(PID.TID 0000.0001) gencost k_boxmean/horflux=  1 O2test:     T
(PID.TID 0000.0001) ECCO_READPARMS: done
(PID.TID 0000.0001) SET_PARMS: done
(PID.TID 0000.0001) Enter INI_VERTICAL_GRID: setInterFDr=    T ; setCenterDr=    F
(PID.TID 0000.0001) %MON XC_max                       =   3.5859375000000E+02
(PID.TID 0000.0001) %MON XC_min                       =   1.4062500000000E+00
(PID.TID 0000.0001) %MON XC_mean                      =   1.8000000000000E+02
(PID.TID 0000.0001) %MON XC_sd                        =   1.0391987692599E+02
(PID.TID 0000.0001) %MON XG_max                       =   3.5718750000000E+02
(PID.TID 0000.0001) %MON XG_min                       =   0.0000000000000E+00
(PID.TID 0000.0001) %MON XG_mean                      =   1.7859375000000E+02
(PID.TID 0000.0001) %MON XG_sd                        =   1.0391987692599E+02
(PID.TID 0000.0001) %MON DXC_max                      =   3.1259246843155E+05
(PID.TID 0000.0001) %MON DXC_min                      =   7.6737143816223E+03
(PID.TID 0000.0001) %MON DXC_mean                     =   1.9908248704234E+05
(PID.TID 0000.0001) %MON DXC_sd                       =   9.6190602240067E+04
(PID.TID 0000.0001) %MON DXF_max                      =   3.1259246843155E+05
(PID.TID 0000.0001) %MON DXF_min                      =   7.6737143816223E+03
(PID.TID 0000.0001) %MON DXF_mean                     =   1.9908248704234E+05
(PID.TID 0000.0001) %MON DXF_sd                       =   9.6190602240067E+04
(PID.TID 0000.0001) %MON DXG_max                      =   3.1268664380261E+05
(PID.TID 0000.0001) %MON DXG_min                      =   0.0000000000000E+00
(PID.TID 0000.0001) %MON DXG_mean                     =   1.9902252711933E+05
(PID.TID 0000.0001) %MON DXG_sd                       =   9.6314600686012E+04
(PID.TID 0000.0001) %MON DXV_max                      =   3.1268664380261E+05
(PID.TID 0000.0001) %MON DXV_min                      =   0.0000000000000E+00
(PID.TID 0000.0001) %MON DXV_mean                     =   1.9902252711933E+05
(PID.TID 0000.0001) %MON DXV_sd                       =   9.6314600686012E+04
(PID.TID 0000.0001) %MON YC_max                       =   8.8593750000000E+01
(PID.TID 0000.0001) %MON YC_min                       =  -8.8593750000000E+01
(PID.TID 0000.0001) %MON YC_mean                      =   0.0000000000000E+00
(PID.TID 0000.0001) %MON YC_sd                        =   5.1955180880375E+01
(PID.TID 0000.0001) %MON YG_max                       =   8.7187500000000E+01
(PID.TID 0000.0001) %MON YG_min                       =  -9.0000000000000E+01
(PID.TID 0000.0001) %MON YG_mean                      =  -1.4062500000000E+00
(PID.TID 0000.0001) %MON YG_sd                        =   5.1955180880375E+01
(PID.TID 0000.0001) %MON DYC_max                      =   3.1268664380261E+05
(PID.TID 0000.0001) %MON DYC_min                      =   3.1268664380261E+05
(PID.TID 0000.0001) %MON DYC_mean                     =   3.1268664380261E+05
(PID.TID 0000.0001) %MON DYC_sd                       =   9.3132257461548E-10
(PID.TID 0000.0001) %MON DYF_max                      =   3.1268664380261E+05
(PID.TID 0000.0001) %MON DYF_min                      =   3.1268664380261E+05
(PID.TID 0000.0001) %MON DYF_mean                     =   3.1268664380261E+05
(PID.TID 0000.0001) %MON DYF_sd                       =   9.3132257461548E-10
(PID.TID 0000.0001) %MON DYG_max                      =   3.1268664380261E+05
(PID.TID 0000.0001) %MON DYG_min                      =   3.1268664380261E+05
(PID.TID 0000.0001) %MON DYG_mean                     =   3.1268664380261E+05
(PID.TID 0000.0001) %MON DYG_sd                       =   9.3132257461548E-10
(PID.TID 0000.0001) %MON DYU_max                      =   3.1268664380261E+05
(PID.TID 0000.0001) %MON DYU_min                      =   3.1268664380261E+05
(PID.TID 0000.0001) %MON DYU_mean                     =   3.1268664380261E+05
(PID.TID 0000.0001) %MON DYU_sd                       =   9.3132257461548E-10
(PID.TID 0000.0001) %MON RA_max                       =   9.7733676797555E+10
(PID.TID 0000.0001) %MON RA_min                       =   2.3992270990190E+09
(PID.TID 0000.0001) %MON RA_mean                      =   6.2244185031957E+10
(PID.TID 0000.0001) %MON RA_sd                        =   3.0074496923945E+10
(PID.TID 0000.0001) %MON RAW_max                      =   9.7733676797555E+10
(PID.TID 0000.0001) %MON RAW_min                      =   2.3992270990190E+09
(PID.TID 0000.0001) %MON RAW_mean                     =   6.2244185031957E+10
(PID.TID 0000.0001) %MON RAW_sd                       =   3.0074496923945E+10
(PID.TID 0000.0001) %MON RAS_max                      =   9.7763121221868E+10
(PID.TID 0000.0001) %MON RAS_min                      =   0.0000000000000E+00
(PID.TID 0000.0001) %MON RAS_mean                     =   6.2225438247155E+10
(PID.TID 0000.0001) %MON RAS_sd                       =   3.0113265689233E+10
(PID.TID 0000.0001) %MON RAZ_max                      =   9.7763121221868E+10
(PID.TID 0000.0001) %MON RAZ_min                      =   0.0000000000000E+00
(PID.TID 0000.0001) %MON RAZ_mean                     =   6.2225438247155E+10
(PID.TID 0000.0001) %MON RAZ_sd                       =   3.0113265689233E+10
(PID.TID 0000.0001) %MON AngleCS_max                  =   1.0000000000000E+00
(PID.TID 0000.0001) %MON AngleCS_min                  =   1.0000000000000E+00
(PID.TID 0000.0001) %MON AngleCS_mean                 =   1.0000000000000E+00
(PID.TID 0000.0001) %MON AngleCS_sd                   =   0.0000000000000E+00
(PID.TID 0000.0001) %MON AngleSN_max                  =   0.0000000000000E+00
(PID.TID 0000.0001) %MON AngleSN_min                  =   0.0000000000000E+00
(PID.TID 0000.0001) %MON AngleSN_mean                 =   0.0000000000000E+00
(PID.TID 0000.0001) %MON AngleSN_sd                   =   0.0000000000000E+00
(PID.TID 0000.0001) 
(PID.TID 0000.0001) // =======================================================
(PID.TID 0000.0001) // Calendar configuration >>> START <<<
(PID.TID 0000.0001) // =======================================================
(PID.TID 0000.0001) 
(PID.TID 0000.0001) modelstart = /* Start time of the model integration [s] */
(PID.TID 0000.0001)                 1.555200000000000E+11
(PID.TID 0000.0001)     ;
(PID.TID 0000.0001) modelend  = /* End time of the model integration [s] */
(PID.TID 0000.0001)                 1.555515360000000E+11
(PID.TID 0000.0001)     ;
(PID.TID 0000.0001) modelStep = /* Time interval for a model forward step [s] */
(PID.TID 0000.0001)                 4.320000000000000E+04
(PID.TID 0000.0001)     ;
(PID.TID 0000.0001) usingGregorianCalendar= /* Calendar Type: Gregorian Calendar */
(PID.TID 0000.0001)                   T
(PID.TID 0000.0001)     ;
(PID.TID 0000.0001) usingJulianCalendar = /* Calendar Type: Julian Calendar */
(PID.TID 0000.0001)                   F
(PID.TID 0000.0001)     ;
(PID.TID 0000.0001) usingNoLeapYearCal  = /* Calendar Type: without Leap Year */
(PID.TID 0000.0001)                   F
(PID.TID 0000.0001)     ;
(PID.TID 0000.0001) usingModelCalendar  = /* Calendar Type: Model Calendar */
(PID.TID 0000.0001)                   F
(PID.TID 0000.0001)     ;
(PID.TID 0000.0001) modelStartDate YYYYMMDD = /* Model start date YYYY-MM-DD */
(PID.TID 0000.0001)                69200326
(PID.TID 0000.0001)     ;
(PID.TID 0000.0001)   modelStartDate HHMMSS = /* Model start date HH-MM-SS  */
(PID.TID 0000.0001)                  120000
(PID.TID 0000.0001)     ;
(PID.TID 0000.0001) modelEndDate   YYYYMMDD = /* Model end date YYYY-MM-DD */
(PID.TID 0000.0001)                69210326
(PID.TID 0000.0001)     ;
(PID.TID 0000.0001)   modelEndDate   HHMMSS = /* Model end date HH-MM-SS  */
(PID.TID 0000.0001)                  120000
(PID.TID 0000.0001)     ;
(PID.TID 0000.0001) intyears = /* Number of calendar years affected by the integration */
(PID.TID 0000.0001)                       2
(PID.TID 0000.0001)     ;
(PID.TID 0000.0001) intmonths= /* Number of calendar months affected by the integration */
(PID.TID 0000.0001)                      13
(PID.TID 0000.0001)     ;
(PID.TID 0000.0001) intdays = /* Number of calendar days affected by the integration */
(PID.TID 0000.0001)                     366
(PID.TID 0000.0001)     ;
(PID.TID 0000.0001) modelIter0 = /* Base timestep number  */
(PID.TID 0000.0001)                 3600000
(PID.TID 0000.0001)     ;
(PID.TID 0000.0001) modelIterEnd = /* Final timestep number  */
(PID.TID 0000.0001)                 3600730
(PID.TID 0000.0001)     ;
(PID.TID 0000.0001) modelIntSteps= /* Number of model timesteps  */
(PID.TID 0000.0001)                     730
(PID.TID 0000.0001)     ;
(PID.TID 0000.0001) 
(PID.TID 0000.0001) // =======================================================
(PID.TID 0000.0001) // Calendar configuration  >>> END <<<
(PID.TID 0000.0001) // =======================================================
(PID.TID 0000.0001) 
(PID.TID 0000.0001) GAD_INIT_FIXED: GAD_OlMinSize=  2  0  1
(PID.TID 0000.0001) 
(PID.TID 0000.0001) // ===================================
(PID.TID 0000.0001) // GAD parameters :
(PID.TID 0000.0001) // ===================================
(PID.TID 0000.0001) tempAdvScheme =   /* Temp. Horiz.Advection scheme selector */
(PID.TID 0000.0001)                      77
(PID.TID 0000.0001)     ;
(PID.TID 0000.0001) tempVertAdvScheme =   /* Temp. Vert. Advection scheme selector */
(PID.TID 0000.0001)                      77
(PID.TID 0000.0001)     ;
(PID.TID 0000.0001) tempMultiDimAdvec =   /* use Muti-Dim Advec method for Temp */
(PID.TID 0000.0001)                   T
(PID.TID 0000.0001)     ;
(PID.TID 0000.0001) tempSOM_Advection = /* use 2nd Order Moment Advection for Temp */
(PID.TID 0000.0001)                   F
(PID.TID 0000.0001)     ;
(PID.TID 0000.0001) AdamsBashforthGt = /* apply Adams-Bashforth extrapolation on Gt */
(PID.TID 0000.0001)                   F
(PID.TID 0000.0001)     ;
(PID.TID 0000.0001) AdamsBashforth_T = /* apply Adams-Bashforth extrapolation on Temp */
(PID.TID 0000.0001)                   F
(PID.TID 0000.0001)     ;
(PID.TID 0000.0001) saltAdvScheme =   /* Salt. Horiz.advection scheme selector */
(PID.TID 0000.0001)                      77
(PID.TID 0000.0001)     ;
(PID.TID 0000.0001) saltVertAdvScheme =   /* Salt. Vert. Advection scheme selector */
(PID.TID 0000.0001)                      77
(PID.TID 0000.0001)     ;
(PID.TID 0000.0001) saltMultiDimAdvec =   /* use Muti-Dim Advec method for Salt */
(PID.TID 0000.0001)                   T
(PID.TID 0000.0001)     ;
(PID.TID 0000.0001) saltSOM_Advection = /* use 2nd Order Moment Advection for Salt */
(PID.TID 0000.0001)                   F
(PID.TID 0000.0001)     ;
(PID.TID 0000.0001) AdamsBashforthGs = /* apply Adams-Bashforth extrapolation on Gs */
(PID.TID 0000.0001)                   F
(PID.TID 0000.0001)     ;
(PID.TID 0000.0001) AdamsBashforth_S = /* apply Adams-Bashforth extrapolation on Salt */
(PID.TID 0000.0001)                   F
(PID.TID 0000.0001)     ;
(PID.TID 0000.0001) // ===================================
(PID.TID 0000.0001) entering boxmean/horflux check,k,using_gencost(k): ,  1    T
(PID.TID 0000.0001) etaday defined by gencost   0
(PID.TID 0000.0001) 
(PID.TID 0000.0001) // =======================================================
(PID.TID 0000.0001) // ECCO configuration >>> START <<<
(PID.TID 0000.0001) // =======================================================
(PID.TID 0000.0001) 
(PID.TID 0000.0001) gencost( 1) = O2test
(PID.TID 0000.0001) -------------
(PID.TID 0000.0001)   starts and ends at :
(PID.TID 0000.0001)   69200326  120000  2   5
(PID.TID 0000.0001)   69210326  120000  1   6
(PID.TID 0000.0001)   number of records =    13
(PID.TID 0000.0001)  model file = m_boxmean_ptracer
(PID.TID 0000.0001)  gencost_itracer =  5
(PID.TID 0000.0001)  error file =
(PID.TID 0000.0001)  gencost_flag = -3
(PID.TID 0000.0001)  gencost_outputlevel =  1
(PID.TID 0000.0001) 
(PID.TID 0000.0001) 
(PID.TID 0000.0001) 
(PID.TID 0000.0001) // =======================================================
(PID.TID 0000.0001) // ECCO configuration  >>> END <<<
(PID.TID 0000.0001) // =======================================================
(PID.TID 0000.0001) 
(PID.TID 0000.0001) 
(PID.TID 0000.0001) // ===================================
(PID.TID 0000.0001) //  DIC_INIT_FIXED parameters :
(PID.TID 0000.0001) nlev = /* Number of level over which Bio act is computed */
(PID.TID 0000.0001)                      23
(PID.TID 0000.0001)     ;
(PID.TID 0000.0001) ctrl-wet 1:    nvarlength =            0
(PID.TID 0000.0001) ctrl-wet 2: surface wet C =          139
(PID.TID 0000.0001) ctrl-wet 3: surface wet W =          139
(PID.TID 0000.0001) ctrl-wet 4: surface wet S =          123
(PID.TID 0000.0001) ctrl-wet 4a:surface wet V =            0
(PID.TID 0000.0001) ctrl-wet 5: 3D wet points =         2832
(PID.TID 0000.0001) ctrl-wet 6: no recs for i =     1           0
(PID.TID 0000.0001) ctrl-wet 6: no recs for i =     2           0
(PID.TID 0000.0001) ctrl-wet 6: no recs for i =     3           0
(PID.TID 0000.0001) ctrl-wet 6: no recs for i =     4           0
(PID.TID 0000.0001) ctrl-wet 6: no recs for i =     5           0
(PID.TID 0000.0001) ctrl-wet 6: no recs for i =     6           0
(PID.TID 0000.0001) ctrl-wet 6: no recs for i =     7           0
(PID.TID 0000.0001) ctrl-wet 6: no recs for i =     8           0
(PID.TID 0000.0001) ctrl-wet 6: no recs for i =     9           0
(PID.TID 0000.0001) ctrl-wet 6: no recs for i =    10           0
(PID.TID 0000.0001) ctrl-wet 6: no recs for i =    11           0
(PID.TID 0000.0001) ctrl-wet 6: no recs for i =    12           0
(PID.TID 0000.0001) ctrl-wet 6: no recs for i =    13           0
(PID.TID 0000.0001) ctrl-wet 6: no recs for i =    14           0
(PID.TID 0000.0001) ctrl-wet 6: no recs for i =    15           0
(PID.TID 0000.0001) ctrl-wet 6: no recs for i =    16           0
(PID.TID 0000.0001) ctrl-wet 6: no recs for i =    17           0
(PID.TID 0000.0001) ctrl-wet 6: no recs for i =    18           0
(PID.TID 0000.0001) ctrl-wet 6: no recs for i =    19           0
(PID.TID 0000.0001) ctrl-wet 6: no recs for i =    20           0
(PID.TID 0000.0001) ctrl-wet 6: no recs for i =    21           0
(PID.TID 0000.0001) ctrl-wet 6: no recs for i =    22           0
(PID.TID 0000.0001) ctrl-wet 6: no recs for i =    23           0
(PID.TID 0000.0001) ctrl-wet 6: no recs for i =    24           0
(PID.TID 0000.0001) ctrl-wet 6: no recs for i =    25           0
(PID.TID 0000.0001) ctrl-wet 6: no recs for i =    26           0
(PID.TID 0000.0001) ctrl-wet 6: no recs for i =    27           0
(PID.TID 0000.0001) ctrl-wet 6: no recs for i =    28           0
(PID.TID 0000.0001) ctrl-wet 6: no recs for i =    29           0
(PID.TID 0000.0001) ctrl-wet 6: no recs for i =    30           0
(PID.TID 0000.0001) ctrl-wet 6: no recs for i =    31           0
(PID.TID 0000.0001) ctrl-wet 6: no recs for i =    32           0
(PID.TID 0000.0001) ctrl-wet 6: no recs for i =    33           0
(PID.TID 0000.0001) ctrl-wet 6: no recs for i =    34           0
(PID.TID 0000.0001) ctrl-wet 6: no recs for i =    35           0
(PID.TID 0000.0001) ctrl-wet 6: no recs for i =    36           0
(PID.TID 0000.0001) ctrl-wet 6: no recs for i =    37           0
(PID.TID 0000.0001) ctrl-wet 6: no recs for i =    38           0
(PID.TID 0000.0001) ctrl-wet 6: no recs for i =    39           0
(PID.TID 0000.0001) ctrl-wet 6: no recs for i =    40           0
(PID.TID 0000.0001) ctrl-wet 6: no recs for i =    41           0
(PID.TID 0000.0001) ctrl-wet 6: no recs for i =    42           0
(PID.TID 0000.0001) ctrl-wet 6: no recs for i =    43           0
(PID.TID 0000.0001) ctrl-wet 6: no recs for i =    44           0
(PID.TID 0000.0001) ctrl-wet 6: no recs for i =    45           0
(PID.TID 0000.0001) ctrl-wet 6: no recs for i =    46           0
(PID.TID 0000.0001) ctrl-wet 6: no recs for i =    47           0
(PID.TID 0000.0001) ctrl-wet 6: no recs for i =    48           0
(PID.TID 0000.0001) ctrl-wet 6: no recs for i =    49           0
(PID.TID 0000.0001) ctrl-wet 6: no recs for i =    50           0
(PID.TID 0000.0001) ctrl-wet 6: no recs for i =    51           0
(PID.TID 0000.0001) ctrl-wet 6: no recs for i =    52           0
(PID.TID 0000.0001) ctrl-wet 6: no recs for i =    53           0
(PID.TID 0000.0001) ctrl-wet 6: no recs for i =    54           0
(PID.TID 0000.0001) ctrl-wet 6: no recs for i =    55           0
(PID.TID 0000.0001) ctrl-wet 6: no recs for i =    56           0
(PID.TID 0000.0001) ctrl-wet 6: no recs for i =    57           0
(PID.TID 0000.0001) ctrl-wet 6: no recs for i =    58           0
(PID.TID 0000.0001) ctrl-wet 6: no recs for i =    59           0
(PID.TID 0000.0001) ctrl-wet 6: no recs for i =    60           0
(PID.TID 0000.0001) ctrl-wet 6: no recs for i =    61           0
(PID.TID 0000.0001) ctrl-wet 6: no recs for i =    62           0
(PID.TID 0000.0001) ctrl-wet 6: no recs for i =    63           0
(PID.TID 0000.0001) ctrl-wet 6: no recs for i =    64           0
(PID.TID 0000.0001) ctrl-wet 6: no recs for i =    65           0
(PID.TID 0000.0001) ctrl-wet 6: no recs for i =    66           0
(PID.TID 0000.0001) ctrl-wet 6: no recs for i =    67           0
(PID.TID 0000.0001) ctrl-wet 6: no recs for i =    68           0
(PID.TID 0000.0001) ctrl-wet 6: no recs for i =    69           0
(PID.TID 0000.0001) ctrl-wet 6: no recs for i =    70           0
(PID.TID 0000.0001) ctrl-wet 6: no recs for i =    71           0
(PID.TID 0000.0001) ctrl-wet 6: no recs for i =    72           0
(PID.TID 0000.0001) ctrl-wet 6: no recs for i =    73           0
(PID.TID 0000.0001) ctrl-wet 6: no recs for i =    74           0
(PID.TID 0000.0001) ctrl-wet 6: no recs for i =    75           0
(PID.TID 0000.0001) ctrl-wet 6: no recs for i =    76           0
(PID.TID 0000.0001) ctrl-wet 6: no recs for i =    77           0
(PID.TID 0000.0001) ctrl-wet 6: no recs for i =    78           0
(PID.TID 0000.0001) ctrl-wet 6: no recs for i =    79           0
(PID.TID 0000.0001) ctrl-wet 6: no recs for i =    80           0
(PID.TID 0000.0001) ctrl-wet 6: no recs for i =    81           0
(PID.TID 0000.0001) ctrl-wet 6: no recs for i =    82           0
(PID.TID 0000.0001) ctrl-wet 6: no recs for i =    83           0
(PID.TID 0000.0001) ctrl-wet 6: no recs for i =    84           0
(PID.TID 0000.0001) ctrl-wet 6: no recs for i =    85           0
(PID.TID 0000.0001) ctrl-wet 6: no recs for i =    86           0
(PID.TID 0000.0001) ctrl-wet 6: no recs for i =    87           0
(PID.TID 0000.0001) ctrl-wet 6: no recs for i =    88           0
(PID.TID 0000.0001) ctrl-wet 6: no recs for i =    89           0
(PID.TID 0000.0001) ctrl-wet 6: no recs for i =    90           0
(PID.TID 0000.0001) ctrl-wet 6: no recs for i =    91           0
(PID.TID 0000.0001) ctrl-wet 6: no recs for i =    92           0
(PID.TID 0000.0001) ctrl-wet 6: no recs for i =    93           0
(PID.TID 0000.0001) ctrl-wet 6: no recs for i =    94           0
(PID.TID 0000.0001) ctrl-wet 6: no recs for i =    95           0
(PID.TID 0000.0001) ctrl-wet 6: no recs for i =    96           0
(PID.TID 0000.0001) ctrl-wet 6: no recs for i =    97           0
(PID.TID 0000.0001) ctrl-wet 6: no recs for i =    98           0
(PID.TID 0000.0001) ctrl-wet 6: no recs for i =    99           0
(PID.TID 0000.0001) ctrl-wet 6: no recs for i =   100           0
(PID.TID 0000.0001) ctrl-wet 6: no recs for i =   101           0
(PID.TID 0000.0001) ctrl-wet 6: no recs for i =   102           0
(PID.TID 0000.0001) ctrl-wet 6: no recs for i =   103           0
(PID.TID 0000.0001) ctrl-wet 6: no recs for i =   104           0
(PID.TID 0000.0001) ctrl-wet 6: no recs for i =   105           0
(PID.TID 0000.0001) ctrl-wet 6: no recs for i =   106           0
(PID.TID 0000.0001) ctrl-wet 6: no recs for i =   107           0
(PID.TID 0000.0001) ctrl-wet 6: no recs for i =   108           0
(PID.TID 0000.0001) ctrl-wet 6: no recs for i =   109           0
(PID.TID 0000.0001) ctrl-wet 6: no recs for i =   110           0
(PID.TID 0000.0001) ctrl-wet 6: no recs for i =   111           0
(PID.TID 0000.0001) ctrl-wet 6: no recs for i =   112           0
(PID.TID 0000.0001) ctrl-wet 6: no recs for i =   113           0
(PID.TID 0000.0001) ctrl-wet 6: no recs for i =   114           0
(PID.TID 0000.0001) ctrl-wet 6: no recs for i =   115           0
(PID.TID 0000.0001) ctrl-wet 6: no recs for i =   116           0
(PID.TID 0000.0001) ctrl-wet 6: no recs for i =   117           0
(PID.TID 0000.0001) ctrl-wet 6: no recs for i =   118           0
(PID.TID 0000.0001) ctrl-wet 6: no recs for i =   119           0
(PID.TID 0000.0001) ctrl-wet 6: no recs for i =   120           0
(PID.TID 0000.0001) ctrl-wet 6: no recs for i =   121           0
(PID.TID 0000.0001) ctrl-wet 6: no recs for i =   122           0
(PID.TID 0000.0001) ctrl-wet 6: no recs for i =   123           0
(PID.TID 0000.0001) ctrl-wet 6: no recs for i =   124           0
(PID.TID 0000.0001) ctrl-wet 6: no recs for i =   125           0
(PID.TID 0000.0001) ctrl-wet 6: no recs for i =   126           0
(PID.TID 0000.0001) ctrl-wet 6: no recs for i =   127           0
(PID.TID 0000.0001) ctrl-wet 6: no recs for i =   128           0
(PID.TID 0000.0001) ctrl-wet 6: no recs for i =   129           0
(PID.TID 0000.0001) ctrl-wet 6: no recs for i =   130           0
(PID.TID 0000.0001) ctrl-wet 6: no recs for i =   131           0
(PID.TID 0000.0001) ctrl-wet 6: no recs for i =   132           0
(PID.TID 0000.0001) ctrl-wet 6: no recs for i =   133           0
(PID.TID 0000.0001) ctrl-wet 6: no recs for i =   134           0
(PID.TID 0000.0001) ctrl-wet 6: no recs for i =   135           0
(PID.TID 0000.0001) ctrl-wet 6: no recs for i =   136           0
(PID.TID 0000.0001) ctrl-wet 6: no recs for i =   137           0
(PID.TID 0000.0001) ctrl-wet 6: no recs for i =   138           0
(PID.TID 0000.0001) ctrl-wet 6: no recs for i =   139           0
(PID.TID 0000.0001) ctrl-wet 6: no recs for i =   140           0
(PID.TID 0000.0001) ctrl-wet 6: no recs for i =   141           0
(PID.TID 0000.0001) ctrl-wet 6: no recs for i =   142           0
(PID.TID 0000.0001) ctrl-wet 6: no recs for i =   143           0
(PID.TID 0000.0001) ctrl-wet 6: no recs for i =   144           0
(PID.TID 0000.0001) ctrl-wet 6: no recs for i =   145           0
(PID.TID 0000.0001) ctrl-wet 6: no recs for i =   146           0
(PID.TID 0000.0001) ctrl-wet 6: no recs for i =   147           0
(PID.TID 0000.0001) ctrl-wet 6: no recs for i =   148           0
(PID.TID 0000.0001) ctrl-wet 6: no recs for i =   149           0
(PID.TID 0000.0001) ctrl-wet 6: no recs for i =   150           0
(PID.TID 0000.0001) ctrl-wet 6: no recs for i =   151           0
(PID.TID 0000.0001) ctrl-wet 6: no recs for i =   152           0
(PID.TID 0000.0001) ctrl-wet 6: no recs for i =   153           0
(PID.TID 0000.0001) ctrl-wet 6: no recs for i =   154           0
(PID.TID 0000.0001) ctrl-wet 6: no recs for i =   155           0
(PID.TID 0000.0001) ctrl-wet 6: no recs for i =   156           0
(PID.TID 0000.0001) ctrl-wet 6: no recs for i =   157           0
(PID.TID 0000.0001) ctrl-wet 6: no recs for i =   158           0
(PID.TID 0000.0001) ctrl-wet 6: no recs for i =   159           0
(PID.TID 0000.0001) ctrl-wet 6: no recs for i =   160           0
(PID.TID 0000.0001) ctrl-wet 6: no recs for i =   161           0
(PID.TID 0000.0001) ctrl-wet 6: no recs for i =   162           0
(PID.TID 0000.0001) ctrl-wet 6: no recs for i =   163           0
(PID.TID 0000.0001) ctrl-wet 6: no recs for i =   164           0
(PID.TID 0000.0001) ctrl-wet 6: no recs for i =   165           0
(PID.TID 0000.0001) ctrl-wet 6: no recs for i =   166           0
(PID.TID 0000.0001) ctrl-wet 6: no recs for i =   167           0
(PID.TID 0000.0001) ctrl-wet 6: no recs for i =   168           0
(PID.TID 0000.0001) ctrl-wet 6: no recs for i =   169           0
(PID.TID 0000.0001) ctrl-wet 6: no recs for i =   170           0
(PID.TID 0000.0001) ctrl-wet 6: no recs for i =   171           0
(PID.TID 0000.0001) ctrl-wet 6: no recs for i =   172           0
(PID.TID 0000.0001) ctrl-wet 6: no recs for i =   173           0
(PID.TID 0000.0001) ctrl-wet 6: no recs for i =   174           0
(PID.TID 0000.0001) ctrl-wet 6: no recs for i =   175           0
(PID.TID 0000.0001) ctrl-wet 6: no recs for i =   176           0
(PID.TID 0000.0001) ctrl-wet 6: no recs for i =   177           0
(PID.TID 0000.0001) ctrl-wet 6: no recs for i =   178           0
(PID.TID 0000.0001) ctrl-wet 6: no recs for i =   179           0
(PID.TID 0000.0001) ctrl-wet 6: no recs for i =   180           0
(PID.TID 0000.0001) ctrl-wet 6: no recs for i =   181           0
(PID.TID 0000.0001) ctrl-wet 6: no recs for i =   182           0
(PID.TID 0000.0001) ctrl-wet 6: no recs for i =   183           0
(PID.TID 0000.0001) ctrl-wet 6: no recs for i =   184           0
(PID.TID 0000.0001) ctrl-wet 6: no recs for i =   185           0
(PID.TID 0000.0001) ctrl-wet 6: no recs for i =   186           0
(PID.TID 0000.0001) ctrl-wet 6: no recs for i =   187           0
(PID.TID 0000.0001) ctrl-wet 6: no recs for i =   188           0
(PID.TID 0000.0001) ctrl-wet 6: no recs for i =   189           0
(PID.TID 0000.0001) ctrl-wet 6: no recs for i =   190           0
(PID.TID 0000.0001) ctrl-wet 6: no recs for i =   191           0
(PID.TID 0000.0001) ctrl-wet 6: no recs for i =   192           0
(PID.TID 0000.0001) ctrl-wet 6: no recs for i =   193           0
(PID.TID 0000.0001) ctrl-wet 6: no recs for i =   194           0
(PID.TID 0000.0001) ctrl-wet 6: no recs for i =   195           0
(PID.TID 0000.0001) ctrl-wet 6: no recs for i =   196           0
(PID.TID 0000.0001) ctrl-wet 6: no recs for i =   197           0
(PID.TID 0000.0001) ctrl-wet 6: no recs for i =   198           0
(PID.TID 0000.0001) ctrl-wet 6: no recs for i =   199           0
(PID.TID 0000.0001) ctrl-wet 6: no recs for i =   200           0
(PID.TID 0000.0001) ctrl-wet 6: no recs for i =   201           0
(PID.TID 0000.0001) ctrl-wet 6: no recs for i =   202           0
(PID.TID 0000.0001) ctrl-wet 6: no recs for i =   203           0
(PID.TID 0000.0001) ctrl-wet 6: no recs for i =   204           0
(PID.TID 0000.0001) ctrl-wet 6: no recs for i =   205           0
(PID.TID 0000.0001) ctrl-wet 6: no recs for i =   206           0
(PID.TID 0000.0001) ctrl-wet 6: no recs for i =   207           0
(PID.TID 0000.0001) ctrl-wet 6: no recs for i =   208           0
(PID.TID 0000.0001) ctrl-wet 6: no recs for i =   209           0
(PID.TID 0000.0001) ctrl-wet 6: no recs for i =   210           0
(PID.TID 0000.0001) ctrl-wet 6: no recs for i =   211           0
(PID.TID 0000.0001) ctrl-wet 6: no recs for i =   212           0
(PID.TID 0000.0001) ctrl-wet 6: no recs for i =   213           0
(PID.TID 0000.0001) ctrl-wet 6: no recs for i =   214           0
(PID.TID 0000.0001) ctrl-wet 6: no recs for i =   215           0
(PID.TID 0000.0001) ctrl-wet 6: no recs for i =   216           0
(PID.TID 0000.0001) ctrl-wet 6: no recs for i =   217           0
(PID.TID 0000.0001) ctrl-wet 6: no recs for i =   218           0
(PID.TID 0000.0001) ctrl-wet 6: no recs for i =   219           0
(PID.TID 0000.0001) ctrl-wet 6: no recs for i =   220           0
(PID.TID 0000.0001) ctrl-wet 6: no recs for i =   221           0
(PID.TID 0000.0001) ctrl-wet 6: no recs for i =   222           0
(PID.TID 0000.0001) ctrl-wet 6: no recs for i =   223           0
(PID.TID 0000.0001) ctrl-wet 6: no recs for i =   224           0
(PID.TID 0000.0001) ctrl-wet 6: no recs for i =   225           0
(PID.TID 0000.0001) ctrl-wet 6: no recs for i =   226           0
(PID.TID 0000.0001) ctrl-wet 6: no recs for i =   227           0
(PID.TID 0000.0001) ctrl-wet 6: no recs for i =   228           0
(PID.TID 0000.0001) ctrl-wet 6: no recs for i =   229           0
(PID.TID 0000.0001) ctrl-wet 6: no recs for i =   230           0
(PID.TID 0000.0001) ctrl-wet 6: no recs for i =   231           0
(PID.TID 0000.0001) ctrl-wet 6: no recs for i =   232           0
(PID.TID 0000.0001) ctrl-wet 6: no recs for i =   233           0
(PID.TID 0000.0001) ctrl-wet 6: no recs for i =   234           0
(PID.TID 0000.0001) ctrl-wet 6: no recs for i =   235           0
(PID.TID 0000.0001) ctrl-wet 6: no recs for i =   236           0
(PID.TID 0000.0001) ctrl-wet 6: no recs for i =   237           0
(PID.TID 0000.0001) ctrl-wet 6: no recs for i =   238           0
(PID.TID 0000.0001) ctrl-wet 6: no recs for i =   239           0
(PID.TID 0000.0001) ctrl-wet 6: no recs for i =   240           0
(PID.TID 0000.0001) ctrl-wet 6: no recs for i =   241           0
(PID.TID 0000.0001) ctrl-wet 6: no recs for i =   242           0
(PID.TID 0000.0001) ctrl-wet 6: no recs for i =   243           0
(PID.TID 0000.0001) ctrl-wet 6: no recs for i =   244           0
(PID.TID 0000.0001) ctrl-wet 6: no recs for i =   245           0
(PID.TID 0000.0001) ctrl-wet 6: no recs for i =   246           0
(PID.TID 0000.0001) ctrl-wet 6: no recs for i =   247           0
(PID.TID 0000.0001) ctrl-wet 6: no recs for i =   248           0
(PID.TID 0000.0001) ctrl-wet 6: no recs for i =   249           0
(PID.TID 0000.0001) ctrl-wet 6: no recs for i =   250           0
(PID.TID 0000.0001) ctrl-wet 6: no recs for i =   251           0
(PID.TID 0000.0001) ctrl-wet 6: no recs for i =   252           0
(PID.TID 0000.0001) ctrl-wet 6: no recs for i =   253           0
(PID.TID 0000.0001) ctrl-wet 6: no recs for i =   254           0
(PID.TID 0000.0001) ctrl-wet 6: no recs for i =   255           0
(PID.TID 0000.0001) ctrl-wet 6: no recs for i =   256           0
(PID.TID 0000.0001) ctrl-wet 6: no recs for i =   257           0
(PID.TID 0000.0001) ctrl-wet 6: no recs for i =   258           0
(PID.TID 0000.0001) ctrl-wet 6: no recs for i =   259           0
(PID.TID 0000.0001) ctrl-wet 6: no recs for i =   260           0
(PID.TID 0000.0001) ctrl-wet 6: no recs for i =   261           0
(PID.TID 0000.0001) ctrl-wet 6: no recs for i =   262           0
(PID.TID 0000.0001) ctrl-wet 6: no recs for i =   263           0
(PID.TID 0000.0001) ctrl-wet 6: no recs for i =   264           0
(PID.TID 0000.0001) ctrl-wet 6: no recs for i =   265           0
(PID.TID 0000.0001) ctrl-wet 6: no recs for i =   266           0
(PID.TID 0000.0001) ctrl-wet 6: no recs for i =   267           0
(PID.TID 0000.0001) ctrl-wet 6: no recs for i =   268           0
(PID.TID 0000.0001) ctrl-wet 6: no recs for i =   269           0
(PID.TID 0000.0001) ctrl-wet 6: no recs for i =   270           0
(PID.TID 0000.0001) ctrl-wet 6: no recs for i =   271           0
(PID.TID 0000.0001) ctrl-wet 6: no recs for i =   272           0
(PID.TID 0000.0001) ctrl-wet 6: no recs for i =   273           0
(PID.TID 0000.0001) ctrl-wet 6: no recs for i =   274           0
(PID.TID 0000.0001) ctrl-wet 6: no recs for i =   275           0
(PID.TID 0000.0001) ctrl-wet 6: no recs for i =   276           0
(PID.TID 0000.0001) ctrl-wet 6: no recs for i =   277           0
(PID.TID 0000.0001) ctrl-wet 6: no recs for i =   278           0
(PID.TID 0000.0001) ctrl-wet 6: no recs for i =   279           0
(PID.TID 0000.0001) ctrl-wet 6: no recs for i =   280           0
(PID.TID 0000.0001) ctrl-wet 6: no recs for i =   281           0
(PID.TID 0000.0001) ctrl-wet 6: no recs for i =   282           0
(PID.TID 0000.0001) ctrl-wet 6: no recs for i =   283           0
(PID.TID 0000.0001) ctrl-wet 6: no recs for i =   284           0
(PID.TID 0000.0001) ctrl-wet 6: no recs for i =   285           0
(PID.TID 0000.0001) ctrl-wet 6: no recs for i =   286           0
(PID.TID 0000.0001) ctrl-wet 6: no recs for i =   287           0
(PID.TID 0000.0001) ctrl-wet 6: no recs for i =   288           0
(PID.TID 0000.0001) ctrl-wet 6: no recs for i =   289           0
(PID.TID 0000.0001) ctrl-wet 6: no recs for i =   290           0
(PID.TID 0000.0001) ctrl-wet 6: no recs for i =   291           0
(PID.TID 0000.0001) ctrl-wet 6: no recs for i =   292           0
(PID.TID 0000.0001) ctrl-wet 6: no recs for i =   293           0
(PID.TID 0000.0001) ctrl-wet 6: no recs for i =   294           0
(PID.TID 0000.0001) ctrl-wet 6: no recs for i =   295           0
(PID.TID 0000.0001) ctrl-wet 6: no recs for i =   296           0
(PID.TID 0000.0001) ctrl-wet 6: no recs for i =   297           0
(PID.TID 0000.0001) ctrl-wet 6: no recs for i =   298           0
(PID.TID 0000.0001) ctrl-wet 6: no recs for i =   299           0
(PID.TID 0000.0001) ctrl-wet 6: no recs for i =   300           0
(PID.TID 0000.0001) ctrl-wet 6: no recs for i =   301           0
(PID.TID 0000.0001) ctrl-wet 6: no recs for i =   302           0
(PID.TID 0000.0001) ctrl-wet 6: no recs for i =   303           0
(PID.TID 0000.0001) ctrl-wet 6: no recs for i =   304           0
(PID.TID 0000.0001) ctrl-wet 6: no recs for i =   305           0
(PID.TID 0000.0001) ctrl-wet 6: no recs for i =   306           0
(PID.TID 0000.0001) ctrl-wet 6: no recs for i =   307           0
(PID.TID 0000.0001) ctrl-wet 6: no recs for i =   308           0
(PID.TID 0000.0001) ctrl-wet 6: no recs for i =   309           0
(PID.TID 0000.0001) ctrl-wet 6: no recs for i =   310           0
(PID.TID 0000.0001) ctrl-wet 6: no recs for i =   311           0
(PID.TID 0000.0001) ctrl-wet 6: no recs for i =   312           0
(PID.TID 0000.0001) ctrl-wet 6: no recs for i =   313           0
(PID.TID 0000.0001) ctrl-wet 6: no recs for i =   314           0
(PID.TID 0000.0001) ctrl-wet 6: no recs for i =   315           0
(PID.TID 0000.0001) ctrl-wet 6: no recs for i =   316           0
(PID.TID 0000.0001) ctrl-wet 6: no recs for i =   317           0
(PID.TID 0000.0001) ctrl-wet 6: no recs for i =   318           0
(PID.TID 0000.0001) ctrl-wet 6: no recs for i =   319           0
(PID.TID 0000.0001) ctrl-wet 6: no recs for i =   320           0
(PID.TID 0000.0001) ctrl-wet 6: no recs for i =   321           0
(PID.TID 0000.0001) ctrl-wet 6: no recs for i =   322           0
(PID.TID 0000.0001) ctrl-wet 6: no recs for i =   323           0
(PID.TID 0000.0001) ctrl-wet 6: no recs for i =   324           0
(PID.TID 0000.0001) ctrl-wet 6: no recs for i =   325           0
(PID.TID 0000.0001) ctrl-wet 6: no recs for i =   326           0
(PID.TID 0000.0001) ctrl-wet 6: no recs for i =   327           0
(PID.TID 0000.0001) ctrl-wet 6: no recs for i =   328           0
(PID.TID 0000.0001) ctrl-wet 6: no recs for i =   329           0
(PID.TID 0000.0001) ctrl-wet 6: no recs for i =   330           0
(PID.TID 0000.0001) ctrl-wet 6: no recs for i =   331           0
(PID.TID 0000.0001) ctrl-wet 6: no recs for i =   332           0
(PID.TID 0000.0001) ctrl-wet 6: no recs for i =   333           0
(PID.TID 0000.0001) ctrl-wet 6: no recs for i =   334           0
(PID.TID 0000.0001) ctrl-wet 6: no recs for i =   335           0
(PID.TID 0000.0001) ctrl-wet 6: no recs for i =   336           0
(PID.TID 0000.0001) ctrl-wet 6: no recs for i =   337           0
(PID.TID 0000.0001) ctrl-wet 6: no recs for i =   338           0
(PID.TID 0000.0001) ctrl-wet 6: no recs for i =   339           0
(PID.TID 0000.0001) ctrl-wet 6: no recs for i =   340           0
(PID.TID 0000.0001) ctrl-wet 6: no recs for i =   341           0
(PID.TID 0000.0001) ctrl-wet 6: no recs for i =   342           0
(PID.TID 0000.0001) ctrl-wet 6: no recs for i =   343           0
(PID.TID 0000.0001) ctrl-wet 6: no recs for i =   344           0
(PID.TID 0000.0001) ctrl-wet 6: no recs for i =   345           0
(PID.TID 0000.0001) ctrl-wet 6: no recs for i =   346           0
(PID.TID 0000.0001) ctrl-wet 6: no recs for i =   347           0
(PID.TID 0000.0001) ctrl-wet 6: no recs for i =   348           0
(PID.TID 0000.0001) ctrl-wet 6: no recs for i =   349           0
(PID.TID 0000.0001) ctrl-wet 6: no recs for i =   350           0
(PID.TID 0000.0001) ctrl-wet 6: no recs for i =   351           0
(PID.TID 0000.0001) ctrl-wet 6: no recs for i =   352           0
(PID.TID 0000.0001) ctrl-wet 6: no recs for i =   353           0
(PID.TID 0000.0001) ctrl-wet 6: no recs for i =   354           0
(PID.TID 0000.0001) ctrl-wet 6: no recs for i =   355           0
(PID.TID 0000.0001) ctrl-wet 6: no recs for i =   356           0
(PID.TID 0000.0001) ctrl-wet 6: no recs for i =   357           0
(PID.TID 0000.0001) ctrl-wet 6: no recs for i =   358           0
(PID.TID 0000.0001) ctrl-wet 6: no recs for i =   359           0
(PID.TID 0000.0001) ctrl-wet 6: no recs for i =   360           0
(PID.TID 0000.0001) ctrl-wet 6: no recs for i =   361           0
(PID.TID 0000.0001) ctrl-wet 6: no recs for i =   362           0
(PID.TID 0000.0001) ctrl-wet 6: no recs for i =   363           0
(PID.TID 0000.0001) ctrl-wet 6: no recs for i =   364           0
(PID.TID 0000.0001) ctrl-wet 6: no recs for i =   365           0
(PID.TID 0000.0001) ctrl-wet 6: no recs for i =   366           0
(PID.TID 0000.0001) ctrl-wet 6: no recs for i =   367           0
(PID.TID 0000.0001) ctrl-wet 6: no recs for i =   368           0
(PID.TID 0000.0001) ctrl-wet 6: no recs for i =   369           0
(PID.TID 0000.0001) ctrl-wet 6: no recs for i =   370           0
(PID.TID 0000.0001) ctrl-wet 6: no recs for i =   371           0
(PID.TID 0000.0001) ctrl-wet 6: no recs for i =   372           0
(PID.TID 0000.0001) ctrl-wet 6: no recs for i =   373           0
(PID.TID 0000.0001) ctrl-wet 6: no recs for i =   374           0
(PID.TID 0000.0001) ctrl-wet 6: no recs for i =   375           0
(PID.TID 0000.0001) ctrl-wet 6: no recs for i =   376           0
(PID.TID 0000.0001) ctrl-wet 6: no recs for i =   377           0
(PID.TID 0000.0001) ctrl-wet 6: no recs for i =   378           0
(PID.TID 0000.0001) ctrl-wet 6: no recs for i =   379           0
(PID.TID 0000.0001) ctrl-wet 6: no recs for i =   380           0
(PID.TID 0000.0001) ctrl-wet 6: no recs for i =   381           0
(PID.TID 0000.0001) ctrl-wet 6: no recs for i =   382           0
(PID.TID 0000.0001) ctrl-wet 6: no recs for i =   383           0
(PID.TID 0000.0001) ctrl-wet 6: no recs for i =   384           0
(PID.TID 0000.0001) ctrl-wet 6: no recs for i =   385           0
(PID.TID 0000.0001) ctrl-wet 6: no recs for i =   386           0
(PID.TID 0000.0001) ctrl-wet 6: no recs for i =   387           0
(PID.TID 0000.0001) ctrl-wet 6: no recs for i =   388           0
(PID.TID 0000.0001) ctrl-wet 6: no recs for i =   389           0
(PID.TID 0000.0001) ctrl-wet 6: no recs for i =   390           0
(PID.TID 0000.0001) ctrl-wet 6: no recs for i =   391           0
(PID.TID 0000.0001) ctrl-wet 6: no recs for i =   392           0
(PID.TID 0000.0001) ctrl-wet 6: no recs for i =   393           0
(PID.TID 0000.0001) ctrl-wet 6: no recs for i =   394           0
(PID.TID 0000.0001) ctrl-wet 6: no recs for i =   395           0
(PID.TID 0000.0001) ctrl-wet 6: no recs for i =   396           0
(PID.TID 0000.0001) ctrl-wet 6: no recs for i =   397           0
(PID.TID 0000.0001) ctrl-wet 6: no recs for i =   398           0
(PID.TID 0000.0001) ctrl-wet 6: no recs for i =   399           0
(PID.TID 0000.0001) ctrl-wet 6: no recs for i =   400           0
(PID.TID 0000.0001) ctrl-wet 7: flux          5664
(PID.TID 0000.0001) ctrl-wet 8: atmos         5664
(PID.TID 0000.0001) ctrl-wet -------------------------------------------------
(PID.TID 0000.0001) ctrl-wet 13: global nvarlength for Nr =   23           0
(PID.TID 0000.0001) ctrl-wet -------------------------------------------------
(PID.TID 0000.0001) ctrl-wet 14: global nWet C/S/W/V k=    1        4447        4201        4277           0
(PID.TID 0000.0001) ctrl-wet 14: global nWet C/S/W/V k=    2        4447        4201        4277           0
(PID.TID 0000.0001) ctrl-wet 14: global nWet C/S/W/V k=    3        4447        4201        4277           0
(PID.TID 0000.0001) ctrl-wet 14: global nWet C/S/W/V k=    4        4447        4201        4277           0
(PID.TID 0000.0001) ctrl-wet 14: global nWet C/S/W/V k=    5        4409        4169        4240           0
(PID.TID 0000.0001) ctrl-wet 14: global nWet C/S/W/V k=    6        4390        4145        4219           0
(PID.TID 0000.0001) ctrl-wet 14: global nWet C/S/W/V k=    7        4371        4126        4195           0
(PID.TID 0000.0001) ctrl-wet 14: global nWet C/S/W/V k=    8        4348        4106        4172           0
(PID.TID 0000.0001) ctrl-wet 14: global nWet C/S/W/V k=    9        4311        4065        4134           0
(PID.TID 0000.0001) ctrl-wet 14: global nWet C/S/W/V k=   10        4262        4027        4087           0
(PID.TID 0000.0001) ctrl-wet 14: global nWet C/S/W/V k=   11        4220        3992        4050           0
(PID.TID 0000.0001) ctrl-wet 14: global nWet C/S/W/V k=   12        4161        3924        3990           0
(PID.TID 0000.0001) ctrl-wet 14: global nWet C/S/W/V k=   13        4095        3861        3927           0
(PID.TID 0000.0001) ctrl-wet 14: global nWet C/S/W/V k=   14        4047        3814        3875           0
(PID.TID 0000.0001) ctrl-wet 14: global nWet C/S/W/V k=   15        3995        3753        3819           0
(PID.TID 0000.0001) ctrl-wet 14: global nWet C/S/W/V k=   16        3910        3648        3721           0
(PID.TID 0000.0001) ctrl-wet 14: global nWet C/S/W/V k=   17        3791        3521        3581           0
(PID.TID 0000.0001) ctrl-wet 14: global nWet C/S/W/V k=   18        3615        3315        3382           0
(PID.TID 0000.0001) ctrl-wet 14: global nWet C/S/W/V k=   19        3238        2877        2935           0
(PID.TID 0000.0001) ctrl-wet 14: global nWet C/S/W/V k=   20        2708        2312        2390           0
(PID.TID 0000.0001) ctrl-wet 14: global nWet C/S/W/V k=   21        1990        1623        1697           0
(PID.TID 0000.0001) ctrl-wet 14: global nWet C/S/W/V k=   22        1010         759         819           0
(PID.TID 0000.0001) ctrl-wet 14: global nWet C/S/W/V k=   23           0           0           0           0
(PID.TID 0000.0001) ctrl-wet -------------------------------------------------
(PID.TID 0000.0001) ctrl-wet -------------------------------------------------
(PID.TID 0000.0001) ctrl-wet -------------------------------------------------
(PID.TID 0000.0001) ctrl_init: no. of control variables:            0
(PID.TID 0000.0001) ctrl_init: control vector length:               0
(PID.TID 0000.0001) 
(PID.TID 0000.0001) // =======================================================
(PID.TID 0000.0001) // control vector configuration  >>> START <<<
(PID.TID 0000.0001) // =======================================================
(PID.TID 0000.0001) 
(PID.TID 0000.0001)  Total number of ocean points per tile:
(PID.TID 0000.0001)  --------------------------------------
(PID.TID 0000.0001)  snx*sny*nr =     5888
(PID.TID 0000.0001) 
(PID.TID 0000.0001)  Number of ocean points per tile:
(PID.TID 0000.0001)  --------------------------------
(PID.TID 0000.0001)  bi,bj,#(c/s/w): 0001 0001 002832 002446 002796
(PID.TID 0000.0001) 
(PID.TID 0000.0001)  Settings of generic controls:
(PID.TID 0000.0001)  -----------------------------
(PID.TID 0000.0001) 
(PID.TID 0000.0001)  ctrlUseGen  =     T /* use generic controls */
(PID.TID 0000.0001) 
(PID.TID 0000.0001) // =======================================================
(PID.TID 0000.0001) // control vector configuration  >>> END <<<
(PID.TID 0000.0001) // =======================================================
(PID.TID 0000.0001) 
(PID.TID 0000.0001) %MON fCori_max                    =   1.4579854531444E-04
(PID.TID 0000.0001) %MON fCori_min                    =  -1.4579854531444E-04
(PID.TID 0000.0001) %MON fCori_mean                   =  -5.4210108624275E-20
(PID.TID 0000.0001) %MON fCori_sd                     =   1.0312619976228E-04
(PID.TID 0000.0001) %MON fCoriG_max                   =   1.4566679669714E-04
(PID.TID 0000.0001) %MON fCoriG_min                   =  -1.4584247033981E-04
(PID.TID 0000.0001) %MON fCoriG_mean                  =  -2.2787885990596E-06
(PID.TID 0000.0001) %MON fCoriG_sd                    =   1.0310101939326E-04
(PID.TID 0000.0001) %MON fCoriCos_max                 =   1.4579854531444E-04
(PID.TID 0000.0001) %MON fCoriCos_min                 =   3.5791533929553E-06
(PID.TID 0000.0001) %MON fCoriCos_mean                =   9.2855522572228E-05
(PID.TID 0000.0001) %MON fCoriCos_sd                  =   4.4864964117307E-05
(PID.TID 0000.0001) INI_CG2D: CG2D normalisation factor =  7.0372759228205407E-05
(PID.TID 0000.0001) 
(PID.TID 0000.0001) // =======================================================
(PID.TID 0000.0001) // Model configuration
(PID.TID 0000.0001) // =======================================================
(PID.TID 0000.0001) //
(PID.TID 0000.0001) // "Physical" paramters ( PARM01 in namelist )
(PID.TID 0000.0001) //
(PID.TID 0000.0001) buoyancyRelation = /* Type of relation to get Buoyancy */
(PID.TID 0000.0001)               'OCEANIC'
(PID.TID 0000.0001)     ;
(PID.TID 0000.0001) fluidIsAir   =  /* fluid major constituent is Air */
(PID.TID 0000.0001)                   F
(PID.TID 0000.0001)     ;
(PID.TID 0000.0001) fluidIsWater =  /* fluid major constituent is Water */
(PID.TID 0000.0001)                   T
(PID.TID 0000.0001)     ;
(PID.TID 0000.0001) usingPCoords =  /* use p (or p*) vertical coordinate */
(PID.TID 0000.0001)                   F
(PID.TID 0000.0001)     ;
(PID.TID 0000.0001) usingZCoords =  /* use z (or z*) vertical coordinate */
(PID.TID 0000.0001)                   T
(PID.TID 0000.0001)     ;
(PID.TID 0000.0001) tRef =   /* Reference temperature profile ( oC or K ) */
(PID.TID 0000.0001)    23 @  2.000000000000000E+01              /* K =  1: 23 */
(PID.TID 0000.0001)     ;
(PID.TID 0000.0001) sRef =   /* Reference salinity profile ( psu ) */
(PID.TID 0000.0001)    23 @  3.500000000000000E+01              /* K =  1: 23 */
(PID.TID 0000.0001)     ;
(PID.TID 0000.0001) useStrainTensionVisc= /* Use StrainTension Form of Viscous Operator */
(PID.TID 0000.0001)                   F
(PID.TID 0000.0001)     ;
(PID.TID 0000.0001) useVariableVisc = /* Use variable horizontal viscosity */
(PID.TID 0000.0001)                   F
(PID.TID 0000.0001)     ;
(PID.TID 0000.0001) useHarmonicVisc = /* Use harmonic horizontal viscosity */
(PID.TID 0000.0001)                   T
(PID.TID 0000.0001)     ;
(PID.TID 0000.0001) useBiharmonicVisc= /* Use biharmonic horiz.  viscosity */
(PID.TID 0000.0001)                   F
(PID.TID 0000.0001)     ;
(PID.TID 0000.0001) useSmag3D = /* Use isotropic 3-D Smagorinsky viscosity */
(PID.TID 0000.0001)                   F
(PID.TID 0000.0001)     ;
(PID.TID 0000.0001) viscAh  =   /* Lateral harmonic viscosity ( m^2/s ) */
(PID.TID 0000.0001)                 2.000000000000000E+05
(PID.TID 0000.0001)     ;
(PID.TID 0000.0001) viscA4  =   /* Lateral biharmonic viscosity ( m^4/s ) */
(PID.TID 0000.0001)                 0.000000000000000E+00
(PID.TID 0000.0001)     ;
(PID.TID 0000.0001) no_slip_sides =  /* Viscous BCs: No-slip sides */
(PID.TID 0000.0001)                   T
(PID.TID 0000.0001)     ;
(PID.TID 0000.0001) sideDragFactor = /* side-drag scaling factor (non-dim) */
(PID.TID 0000.0001)                 2.000000000000000E+00
(PID.TID 0000.0001)     ;
(PID.TID 0000.0001) viscArNr = /* vertical profile of vertical viscosity ( m^2/s )*/
(PID.TID 0000.0001)    23 @  1.000000000000000E-03              /* K =  1: 23 */
(PID.TID 0000.0001)     ;
(PID.TID 0000.0001) no_slip_bottom =  /* Viscous BCs: No-slip bottom */
(PID.TID 0000.0001)                   T
(PID.TID 0000.0001)     ;
(PID.TID 0000.0001) bottomVisc_pCell = /* Partial-cell in bottom Visc. BC */
(PID.TID 0000.0001)                   F
(PID.TID 0000.0001)     ;
(PID.TID 0000.0001) bottomDragLinear = /* linear bottom-drag coefficient ( m/s ) */
(PID.TID 0000.0001)                 0.000000000000000E+00
(PID.TID 0000.0001)     ;
(PID.TID 0000.0001) bottomDragQuadratic = /* quadratic bottom-drag coefficient (-) */
(PID.TID 0000.0001)                 0.000000000000000E+00
(PID.TID 0000.0001)     ;
(PID.TID 0000.0001) selectBotDragQuadr = /* select quadratic bottom drag options */
(PID.TID 0000.0001)                      -1
(PID.TID 0000.0001)     ;
(PID.TID 0000.0001) diffKhT =   /* Laplacian diffusion of heat laterally ( m^2/s ) */
(PID.TID 0000.0001)                 0.000000000000000E+00
(PID.TID 0000.0001)     ;
(PID.TID 0000.0001) diffK4T =   /* Biharmonic diffusion of heat laterally ( m^4/s ) */
(PID.TID 0000.0001)                 0.000000000000000E+00
(PID.TID 0000.0001)     ;
(PID.TID 0000.0001) diffKhS =   /* Laplacian diffusion of salt laterally ( m^2/s ) */
(PID.TID 0000.0001)                 0.000000000000000E+00
(PID.TID 0000.0001)     ;
(PID.TID 0000.0001) diffK4S =   /* Biharmonic diffusion of salt laterally ( m^4/s ) */
(PID.TID 0000.0001)                 0.000000000000000E+00
(PID.TID 0000.0001)     ;
(PID.TID 0000.0001) diffKrNrT = /* vertical profile of vertical diffusion of Temp ( m^2/s )*/
(PID.TID 0000.0001)    23 @  0.000000000000000E+00              /* K =  1: 23 */
(PID.TID 0000.0001)     ;
(PID.TID 0000.0001) diffKrNrS = /* vertical profile of vertical diffusion of Salt ( m^2/s )*/
(PID.TID 0000.0001)    23 @  0.000000000000000E+00              /* K =  1: 23 */
(PID.TID 0000.0001)     ;
(PID.TID 0000.0001) diffKrBL79surf = /* Surface diffusion for Bryan and Lewis 79 ( m^2/s ) */
(PID.TID 0000.0001)                 3.000000000000000E-05
(PID.TID 0000.0001)     ;
(PID.TID 0000.0001) diffKrBL79deep = /* Deep diffusion for Bryan and Lewis 1979 ( m^2/s ) */
(PID.TID 0000.0001)                 1.300000000000000E-04
(PID.TID 0000.0001)     ;
(PID.TID 0000.0001) diffKrBL79scl = /* Depth scale for Bryan and Lewis 1979 ( m ) */
(PID.TID 0000.0001)                 1.500000000000000E+02
(PID.TID 0000.0001)     ;
(PID.TID 0000.0001) diffKrBL79Ho = /* Turning depth for Bryan and Lewis 1979 ( m ) */
(PID.TID 0000.0001)                -2.000000000000000E+03
(PID.TID 0000.0001)     ;
(PID.TID 0000.0001) ivdc_kappa = /* Implicit Vertical Diffusivity for Convection ( m^2/s) */
(PID.TID 0000.0001)                 0.000000000000000E+00
(PID.TID 0000.0001)     ;
(PID.TID 0000.0001) hMixCriteria=  /* Criteria for mixed-layer diagnostic */
(PID.TID 0000.0001)                -8.000000000000000E-01
(PID.TID 0000.0001)     ;
(PID.TID 0000.0001) dRhoSmall =  /* Parameter for mixed-layer diagnostic */
(PID.TID 0000.0001)                 1.000000000000000E-06
(PID.TID 0000.0001)     ;
(PID.TID 0000.0001) hMixSmooth=  /* Smoothing parameter for mixed-layer diagnostic */
(PID.TID 0000.0001)                 0.000000000000000E+00
(PID.TID 0000.0001)     ;
(PID.TID 0000.0001) eosType =  /* Type of Equation of State */
(PID.TID 0000.0001)               'JMD95Z'
(PID.TID 0000.0001)     ;
(PID.TID 0000.0001) selectP_inEOS_Zc = /* select pressure to use in EOS (0,1,2,3) */
(PID.TID 0000.0001)                       0
(PID.TID 0000.0001)     0= -g*rhoConst*z ; 1= pRef (from tRef,sRef); 2= Hyd P ; 3= Hyd+NH P
(PID.TID 0000.0001)     ;
(PID.TID 0000.0001) HeatCapacity_Cp =  /* Specific heat capacity ( J/kg/K ) */
(PID.TID 0000.0001)                 3.994000000000000E+03
(PID.TID 0000.0001)     ;
(PID.TID 0000.0001) celsius2K = /* 0 degree Celsius converted to Kelvin ( K ) */
(PID.TID 0000.0001)                 2.731500000000000E+02
(PID.TID 0000.0001)     ;
(PID.TID 0000.0001) rhoConst  = /* Reference density (Boussinesq)  ( kg/m^3 ) */
(PID.TID 0000.0001)                 1.035000000000000E+03
(PID.TID 0000.0001)     ;
(PID.TID 0000.0001) rhoFacC = /* normalized Reference density @ cell-Center (-) */
(PID.TID 0000.0001)    23 @  1.000000000000000E+00              /* K =  1: 23 */
(PID.TID 0000.0001)     ;
(PID.TID 0000.0001) rhoFacF = /* normalized Reference density @ W-Interface (-) */
(PID.TID 0000.0001)    24 @  1.000000000000000E+00              /* K =  1: 24 */
(PID.TID 0000.0001)     ;
(PID.TID 0000.0001) rhoConstFresh = /* Fresh-water reference density ( kg/m^3 ) */
(PID.TID 0000.0001)                 1.000000000000000E+03
(PID.TID 0000.0001)     ;
(PID.TID 0000.0001) gravity =   /* Gravitational acceleration ( m/s^2 ) */
(PID.TID 0000.0001)                 9.810000000000000E+00
(PID.TID 0000.0001)     ;
(PID.TID 0000.0001) gBaro =   /* Barotropic gravity ( m/s^2 ) */
(PID.TID 0000.0001)                 9.810000000000000E+00
(PID.TID 0000.0001)     ;
(PID.TID 0000.0001) gravFacC = /* gravity factor (vs surf.) @ cell-Center (-) */
(PID.TID 0000.0001)    23 @  1.000000000000000E+00              /* K =  1: 23 */
(PID.TID 0000.0001)     ;
(PID.TID 0000.0001) gravFacF = /* gravity factor (vs surf.) @ W-Interface (-) */
(PID.TID 0000.0001)    24 @  1.000000000000000E+00              /* K =  1: 24 */
(PID.TID 0000.0001)     ;
(PID.TID 0000.0001) rotationPeriod =   /* Rotation Period ( s ) */
(PID.TID 0000.0001)                 8.616400000000000E+04
(PID.TID 0000.0001)     ;
(PID.TID 0000.0001) omega =   /* Angular velocity ( rad/s ) */
(PID.TID 0000.0001)                 7.292123516990375E-05
(PID.TID 0000.0001)     ;
(PID.TID 0000.0001) f0 =   /* Reference coriolis parameter ( 1/s ) */
(PID.TID 0000.0001)                 1.000000000000000E-04
(PID.TID 0000.0001)     ;
(PID.TID 0000.0001) beta =   /* Beta ( 1/(m.s) ) */
(PID.TID 0000.0001)                 9.999999999999999E-12
(PID.TID 0000.0001)     ;
(PID.TID 0000.0001) fPrime =   /* Second coriolis parameter ( 1/s ) */
(PID.TID 0000.0001)                 0.000000000000000E+00
(PID.TID 0000.0001)     ;
(PID.TID 0000.0001) rigidLid =   /* Rigid lid on/off flag */
(PID.TID 0000.0001)                   F
(PID.TID 0000.0001)     ;
(PID.TID 0000.0001) implicitFreeSurface =   /* Implicit free surface on/off flag */
(PID.TID 0000.0001)                   T
(PID.TID 0000.0001)     ;
(PID.TID 0000.0001) freeSurfFac =   /* Implicit free surface factor */
(PID.TID 0000.0001)                 1.000000000000000E+00
(PID.TID 0000.0001)     ;
(PID.TID 0000.0001) implicSurfPress =  /* Surface Pressure implicit factor (0-1)*/
(PID.TID 0000.0001)                 1.000000000000000E+00
(PID.TID 0000.0001)     ;
(PID.TID 0000.0001) implicDiv2DFlow =  /* Barot. Flow Div. implicit factor (0-1)*/
(PID.TID 0000.0001)                 1.000000000000000E+00
(PID.TID 0000.0001)     ;
(PID.TID 0000.0001) uniformLin_PhiSurf = /* use uniform Bo_surf on/off flag*/
(PID.TID 0000.0001)                   T
(PID.TID 0000.0001)     ;
(PID.TID 0000.0001) uniformFreeSurfLev = /* free-surface level-index is uniform */
(PID.TID 0000.0001)                   T
(PID.TID 0000.0001)     ;
(PID.TID 0000.0001) hFacMin =   /* minimum partial cell factor (hFac) */
(PID.TID 0000.0001)                 1.000000000000000E-01
(PID.TID 0000.0001)     ;
(PID.TID 0000.0001) hFacMinDr = /* minimum partial cell thickness ( m) */
(PID.TID 0000.0001)                 5.000000000000000E+01
(PID.TID 0000.0001)     ;
(PID.TID 0000.0001) exactConserv =  /* Exact Volume Conservation on/off flag*/
(PID.TID 0000.0001)                   F
(PID.TID 0000.0001)     ;
(PID.TID 0000.0001) linFSConserveTr = /* Tracer correction for Lin Free Surface on/off flag*/
(PID.TID 0000.0001)                   F
(PID.TID 0000.0001)     ;
(PID.TID 0000.0001) nonlinFreeSurf = /* Non-linear Free Surf. options (-1,0,1,2,3)*/
(PID.TID 0000.0001)                       0
(PID.TID 0000.0001)      -1,0= Off ; 1,2,3= On, 2=+rescale gU,gV, 3=+update cg2d solv.
(PID.TID 0000.0001)     ;
(PID.TID 0000.0001) hFacInf =   /* lower threshold for hFac (nonlinFreeSurf only)*/
(PID.TID 0000.0001)                 2.000000000000000E-01
(PID.TID 0000.0001)     ;
(PID.TID 0000.0001) hFacSup =   /* upper threshold for hFac (nonlinFreeSurf only)*/
(PID.TID 0000.0001)                 2.000000000000000E+00
(PID.TID 0000.0001)     ;
(PID.TID 0000.0001) select_rStar = /* r* Vertical coord. options (=0 r coord.; >0 uses r*)*/
(PID.TID 0000.0001)                       0
(PID.TID 0000.0001)     ;
(PID.TID 0000.0001) useRealFreshWaterFlux = /* Real Fresh Water Flux on/off flag*/
(PID.TID 0000.0001)                   F
(PID.TID 0000.0001)     ;
(PID.TID 0000.0001) temp_EvPrRn = /* Temp. of Evap/Prec/R (UNSET=use local T)(oC)*/
(PID.TID 0000.0001)                 1.234567000000000E+05
(PID.TID 0000.0001)     ;
(PID.TID 0000.0001) salt_EvPrRn = /* Salin. of Evap/Prec/R (UNSET=use local S)(psu)*/
(PID.TID 0000.0001)                 0.000000000000000E+00
(PID.TID 0000.0001)     ;
(PID.TID 0000.0001) selectAddFluid = /* option for mass source/sink of fluid (=0: off) */
(PID.TID 0000.0001)                       0
(PID.TID 0000.0001)     ;
(PID.TID 0000.0001) temp_addMass = /* Temp. of addMass array (UNSET=use local T)(oC)*/
(PID.TID 0000.0001)                 1.234567000000000E+05
(PID.TID 0000.0001)     ;
(PID.TID 0000.0001) salt_addMass = /* Salin. of addMass array (UNSET=use local S)(psu)*/
(PID.TID 0000.0001)                 0.000000000000000E+00
(PID.TID 0000.0001)     ;
(PID.TID 0000.0001) convertFW2Salt = /* convert F.W. Flux to Salt Flux (-1=use local S)(psu)*/
(PID.TID 0000.0001)                 3.500000000000000E+01
(PID.TID 0000.0001)     ;
(PID.TID 0000.0001) use3Dsolver = /* use 3-D pressure solver on/off flag */
(PID.TID 0000.0001)                   F
(PID.TID 0000.0001)     ;
(PID.TID 0000.0001) nonHydrostatic =  /* Non-Hydrostatic on/off flag */
(PID.TID 0000.0001)                   F
(PID.TID 0000.0001)     ;
(PID.TID 0000.0001) nh_Am2 = /* Non-Hydrostatic terms scaling factor */
(PID.TID 0000.0001)                 1.000000000000000E+00
(PID.TID 0000.0001)     ;
(PID.TID 0000.0001) implicitNHPress = /* Non-Hyd Pressure implicit factor (0-1)*/
(PID.TID 0000.0001)                 1.000000000000000E+00
(PID.TID 0000.0001)     ;
(PID.TID 0000.0001) selectNHfreeSurf = /* Non-Hyd (free-)Surface option */
(PID.TID 0000.0001)                       0
(PID.TID 0000.0001)     ;
(PID.TID 0000.0001) quasiHydrostatic = /* Quasi-Hydrostatic on/off flag */
(PID.TID 0000.0001)                   F
(PID.TID 0000.0001)     ;
(PID.TID 0000.0001) calc_wVelocity = /* vertical velocity calculation on/off flag */
(PID.TID 0000.0001)                   T
(PID.TID 0000.0001)     ;
(PID.TID 0000.0001) momStepping =  /* Momentum equation on/off flag */
(PID.TID 0000.0001)                   T
(PID.TID 0000.0001)     ;
(PID.TID 0000.0001) vectorInvariantMomentum= /* Vector-Invariant Momentum on/off */
(PID.TID 0000.0001)                   F
(PID.TID 0000.0001)     ;
(PID.TID 0000.0001) momAdvection =  /* Momentum advection on/off flag */
(PID.TID 0000.0001)                   T
(PID.TID 0000.0001)     ;
(PID.TID 0000.0001) momViscosity =  /* Momentum viscosity on/off flag */
(PID.TID 0000.0001)                   T
(PID.TID 0000.0001)     ;
(PID.TID 0000.0001) momImplVertAdv= /* Momentum implicit vert. advection on/off*/
(PID.TID 0000.0001)                   F
(PID.TID 0000.0001)     ;
(PID.TID 0000.0001) implicitViscosity = /* Implicit viscosity on/off flag */
(PID.TID 0000.0001)                   T
(PID.TID 0000.0001)     ;
(PID.TID 0000.0001) selectImplicitDrag= /* Implicit bot Drag options (0,1,2)*/
(PID.TID 0000.0001)                       0
(PID.TID 0000.0001)     0= Expl. ; 1= Impl. on provis. Vel ; 2= Fully Impl (with surf.P)
(PID.TID 0000.0001)     ;
(PID.TID 0000.0001) metricTerms =  /* metric-Terms on/off flag */
(PID.TID 0000.0001)                   T
(PID.TID 0000.0001)     ;
(PID.TID 0000.0001) useNHMTerms = /* Non-Hydrostatic Metric-Terms on/off */
(PID.TID 0000.0001)                   F
(PID.TID 0000.0001)     ;
(PID.TID 0000.0001) selectCoriMap = /* Coriolis Map options (0,1,2,3)*/
(PID.TID 0000.0001)                       2
(PID.TID 0000.0001)     0= f-Plane ; 1= Beta-Plane ; 2= Spherical ; 3= read from file
(PID.TID 0000.0001)     ;
(PID.TID 0000.0001) use3dCoriolis = /* 3-D Coriolis on/off flag */
(PID.TID 0000.0001)                   F
(PID.TID 0000.0001)     ;
(PID.TID 0000.0001) useCoriolis =  /* Coriolis on/off flag */
(PID.TID 0000.0001)                   T
(PID.TID 0000.0001)     ;
(PID.TID 0000.0001) useCDscheme =  /* CD scheme on/off flag */
(PID.TID 0000.0001)                   T
(PID.TID 0000.0001)     ;
(PID.TID 0000.0001) useEnergyConservingCoriolis= /* Flx-Form Coriolis scheme flag */
(PID.TID 0000.0001)                   F
(PID.TID 0000.0001)     ;
(PID.TID 0000.0001) useJamartWetPoints= /* Coriolis WetPoints method flag */
(PID.TID 0000.0001)                   F
(PID.TID 0000.0001)     ;
(PID.TID 0000.0001) useJamartMomAdv= /* V.I Non-linear terms Jamart flag */
(PID.TID 0000.0001)                   F
(PID.TID 0000.0001)     ;
(PID.TID 0000.0001) useAbsVorticity= /* V.I Works with f+zeta in Coriolis */
(PID.TID 0000.0001)                   F
(PID.TID 0000.0001)     ;
(PID.TID 0000.0001) selectVortScheme= /* V.I Scheme selector for Vorticity-Term */
(PID.TID 0000.0001)               123456789
(PID.TID 0000.0001)    = 0 : enstrophy (Shallow-Water Eq.) conserving scheme by Sadourny, JAS 75
(PID.TID 0000.0001)    = 1 : same as 0 with modified hFac
(PID.TID 0000.0001)    = 2 : energy conserving scheme (used by Sadourny in JAS 75 paper)
(PID.TID 0000.0001)    = 3 : energy (general) and enstrophy (2D, nonDiv.) conserving scheme
(PID.TID 0000.0001)          from Sadourny (Burridge & Haseler, ECMWF Rep.4, 1977)
(PID.TID 0000.0001)     ;
(PID.TID 0000.0001) upwindVorticity= /* V.I Upwind bias vorticity flag */
(PID.TID 0000.0001)                   F
(PID.TID 0000.0001)     ;
(PID.TID 0000.0001) highOrderVorticity= /* V.I High order vort. advect. flag */
(PID.TID 0000.0001)                   F
(PID.TID 0000.0001)     ;
(PID.TID 0000.0001) upwindShear= /* V.I Upwind vertical Shear advection flag */
(PID.TID 0000.0001)                   F
(PID.TID 0000.0001)     ;
(PID.TID 0000.0001) selectKEscheme= /* V.I Kinetic Energy scheme selector */
(PID.TID 0000.0001)                       0
(PID.TID 0000.0001)     ;
(PID.TID 0000.0001) momForcing =  /* Momentum forcing on/off flag */
(PID.TID 0000.0001)                   T
(PID.TID 0000.0001)     ;
(PID.TID 0000.0001) momTidalForcing = /* Momentum Tidal forcing on/off flag */
(PID.TID 0000.0001)                   T
(PID.TID 0000.0001)     ;
(PID.TID 0000.0001) momPressureForcing =  /* Momentum pressure term on/off flag */
(PID.TID 0000.0001)                   T
(PID.TID 0000.0001)     ;
(PID.TID 0000.0001) implicitIntGravWave= /* Implicit Internal Gravity Wave flag */
(PID.TID 0000.0001)                   F
(PID.TID 0000.0001)     ;
(PID.TID 0000.0001) staggerTimeStep =    /* Stagger time stepping on/off flag */
(PID.TID 0000.0001)                   T
(PID.TID 0000.0001)     ;
(PID.TID 0000.0001) doResetHFactors = /* reset thickness factors @ each time-step */
(PID.TID 0000.0001)                   F
(PID.TID 0000.0001)     ;
(PID.TID 0000.0001) multiDimAdvection =  /* enable/disable Multi-Dim Advection */
(PID.TID 0000.0001)                   T
(PID.TID 0000.0001)     ;
(PID.TID 0000.0001) useMultiDimAdvec =   /* Multi-Dim Advection is/is-not used */
(PID.TID 0000.0001)                   T
(PID.TID 0000.0001)     ;
(PID.TID 0000.0001) implicitDiffusion = /* Implicit Diffusion on/off flag */
(PID.TID 0000.0001)                   T
(PID.TID 0000.0001)     ;
(PID.TID 0000.0001) tempStepping =  /* Temperature equation on/off flag */
(PID.TID 0000.0001)                   T
(PID.TID 0000.0001)     ;
(PID.TID 0000.0001) tempAdvection = /* Temperature advection on/off flag */
(PID.TID 0000.0001)                   T
(PID.TID 0000.0001)     ;
(PID.TID 0000.0001) tempImplVertAdv = /* Temp. implicit vert. advection on/off */
(PID.TID 0000.0001)                   F
(PID.TID 0000.0001)     ;
(PID.TID 0000.0001) tempForcing  =  /* Temperature forcing on/off flag */
(PID.TID 0000.0001)                   T
(PID.TID 0000.0001)     ;
(PID.TID 0000.0001) doThetaClimRelax = /* apply SST relaxation on/off flag */
(PID.TID 0000.0001)                   T
(PID.TID 0000.0001)     ;
(PID.TID 0000.0001) tempIsActiveTr = /* Temp. is a dynamically Active Tracer */
(PID.TID 0000.0001)                   T
(PID.TID 0000.0001)     ;
(PID.TID 0000.0001) saltStepping =  /* Salinity equation on/off flag */
(PID.TID 0000.0001)                   T
(PID.TID 0000.0001)     ;
(PID.TID 0000.0001) saltAdvection = /* Salinity advection on/off flag */
(PID.TID 0000.0001)                   T
(PID.TID 0000.0001)     ;
(PID.TID 0000.0001) saltImplVertAdv = /* Sali. implicit vert. advection on/off */
(PID.TID 0000.0001)                   F
(PID.TID 0000.0001)     ;
(PID.TID 0000.0001) saltForcing  =  /* Salinity forcing on/off flag */
(PID.TID 0000.0001)                   T
(PID.TID 0000.0001)     ;
(PID.TID 0000.0001) doSaltClimRelax = /* apply SSS relaxation on/off flag */
(PID.TID 0000.0001)                   T
(PID.TID 0000.0001)     ;
(PID.TID 0000.0001) saltIsActiveTr = /* Salt  is a dynamically Active Tracer */
(PID.TID 0000.0001)                   T
(PID.TID 0000.0001)     ;
(PID.TID 0000.0001)  readBinaryPrec = /* Precision used for reading binary files */
(PID.TID 0000.0001)                      32
(PID.TID 0000.0001)     ;
(PID.TID 0000.0001) writeBinaryPrec = /* Precision used for writing binary files */
(PID.TID 0000.0001)                      32
(PID.TID 0000.0001)     ;
(PID.TID 0000.0001)  rwSuffixType =   /* select format of mds file suffix */
(PID.TID 0000.0001)                       0
(PID.TID 0000.0001)    = 0 : myIter (I10.10) ;   = 1 : 100*myTime (100th sec) ;
(PID.TID 0000.0001)    = 2 : myTime (seconds);   = 3 : myTime/360 (10th of hr);
(PID.TID 0000.0001)    = 4 : myTime/3600 (hours)
(PID.TID 0000.0001)     ;
(PID.TID 0000.0001)  globalFiles = /* write "global" (=not per tile) files */
(PID.TID 0000.0001)                   F
(PID.TID 0000.0001)     ;
(PID.TID 0000.0001)  useSingleCpuIO = /* only master MPI process does I/O */
(PID.TID 0000.0001)                   T
(PID.TID 0000.0001)     ;
(PID.TID 0000.0001)  useSingleCpuInput = /* only master process reads input */
(PID.TID 0000.0001)                   T
(PID.TID 0000.0001)     ;
(PID.TID 0000.0001) /* debLev[*]  : level of debug & auxiliary message printing */
(PID.TID 0000.0001) debLevZero =  0 ; /* level of disabled aux. msg printing */
(PID.TID 0000.0001)    debLevA =  1 ; /* level of minimum  aux. msg printing */
(PID.TID 0000.0001)    debLevB =  2 ; /* level of low aux. print (report read-file opening)*/
(PID.TID 0000.0001)    debLevC =  3 ; /* level of moderate debug prt (most pkgs debug msg) */
(PID.TID 0000.0001)    debLevD =  4 ; /* level of enhanced debug prt (add DEBUG_STATS prt) */
(PID.TID 0000.0001)    debLevE =  5 ; /* level of extensive debug printing */
(PID.TID 0000.0001) debugLevel =  /* select debug printing level */
(PID.TID 0000.0001)                       0
(PID.TID 0000.0001)     ;
(PID.TID 0000.0001)  plotLevel =  /* select PLOT_FIELD printing level */
(PID.TID 0000.0001)                       0
(PID.TID 0000.0001)     ;
(PID.TID 0000.0001) //
(PID.TID 0000.0001) // Elliptic solver(s) paramters ( PARM02 in namelist )
(PID.TID 0000.0001) //
(PID.TID 0000.0001) cg2dMaxIters =   /* Upper limit on 2d con. grad iterations  */
(PID.TID 0000.0001)                    1000
(PID.TID 0000.0001)     ;
(PID.TID 0000.0001) cg2dChkResFreq =   /* 2d con. grad convergence test frequency */
(PID.TID 0000.0001)                       1
(PID.TID 0000.0001)     ;
(PID.TID 0000.0001) cg2dUseMinResSol= /* use cg2d last-iter(=0) / min-resid.(=1) solution */
(PID.TID 0000.0001)                       0
(PID.TID 0000.0001)     ;
(PID.TID 0000.0001) cg2dTargetResidual =   /* 2d con. grad target residual  */
(PID.TID 0000.0001)                 1.000000000000000E-13
(PID.TID 0000.0001)     ;
(PID.TID 0000.0001) cg2dTargetResWunit =   /* CG2d target residual [W units] */
(PID.TID 0000.0001)                -1.000000000000000E+00
(PID.TID 0000.0001)     ;
(PID.TID 0000.0001) cg2dPreCondFreq =   /* Freq. for updating cg2d preconditioner */
(PID.TID 0000.0001)                       1
(PID.TID 0000.0001)     ;
(PID.TID 0000.0001) useSRCGSolver =  /* use single reduction CG solver(s) */
(PID.TID 0000.0001)                   F
(PID.TID 0000.0001)     ;
(PID.TID 0000.0001) printResidualFreq = /* Freq. for printing CG residual */
(PID.TID 0000.0001)                       0
(PID.TID 0000.0001)     ;
(PID.TID 0000.0001) //
(PID.TID 0000.0001) // Time stepping paramters ( PARM03 in namelist )
(PID.TID 0000.0001) //
(PID.TID 0000.0001) deltaTMom =   /* Momentum equation timestep ( s ) */
(PID.TID 0000.0001)                 9.000000000000000E+02
(PID.TID 0000.0001)     ;
(PID.TID 0000.0001) deltaTFreeSurf = /* FreeSurface equation timestep ( s ) */
(PID.TID 0000.0001)                 9.000000000000000E+02
(PID.TID 0000.0001)     ;
(PID.TID 0000.0001) dTtracerLev =  /* Tracer equation timestep ( s ) */
(PID.TID 0000.0001)    23 @  4.320000000000000E+04              /* K =  1: 23 */
(PID.TID 0000.0001)     ;
(PID.TID 0000.0001) deltaTClock  =   /* Model clock timestep ( s ) */
(PID.TID 0000.0001)                 4.320000000000000E+04
(PID.TID 0000.0001)     ;
(PID.TID 0000.0001) cAdjFreq =   /* Convective adjustment interval ( s ) */
(PID.TID 0000.0001)                 0.000000000000000E+00
(PID.TID 0000.0001)     ;
(PID.TID 0000.0001) momForcingOutAB = /* =1: take Momentum Forcing out of Adams-Bash. stepping */
(PID.TID 0000.0001)                       0
(PID.TID 0000.0001)     ;
(PID.TID 0000.0001) tracForcingOutAB = /* =1: take T,S,pTr Forcing out of Adams-Bash. stepping */
(PID.TID 0000.0001)                       0
(PID.TID 0000.0001)     ;
(PID.TID 0000.0001) momDissip_In_AB = /* put Dissipation Tendency in Adams-Bash. stepping */
(PID.TID 0000.0001)                   T
(PID.TID 0000.0001)     ;
(PID.TID 0000.0001) doAB_onGtGs = /* apply AB on Tendencies (rather than on T,S)*/
(PID.TID 0000.0001)                   T
(PID.TID 0000.0001)     ;
(PID.TID 0000.0001) abEps =   /* Adams-Bashforth-2 stabilizing weight */
(PID.TID 0000.0001)                 1.000000000000000E-01
(PID.TID 0000.0001)     ;
(PID.TID 0000.0001) applyExchUV_early = /* Apply EXCH to U,V earlier in time-step */
(PID.TID 0000.0001)                   F
(PID.TID 0000.0001)     ;
(PID.TID 0000.0001) tauCD =   /* CD coupling time-scale ( s ) */
(PID.TID 0000.0001)                 3.214280000000000E+05
(PID.TID 0000.0001)     ;
(PID.TID 0000.0001) rCD =   /* Normalised CD coupling parameter */
(PID.TID 0000.0001)                 9.971999950222133E-01
(PID.TID 0000.0001)     ;
(PID.TID 0000.0001) epsAB_CD = /* AB-2 stabilizing weight for CD-scheme*/
(PID.TID 0000.0001)                 1.000000000000000E-01
(PID.TID 0000.0001)     ;
(PID.TID 0000.0001) pickupStrictlyMatch= /* stop if pickup do not strictly match */
(PID.TID 0000.0001)                   F
(PID.TID 0000.0001)     ;
(PID.TID 0000.0001) nIter0   =   /* Run starting timestep number */
(PID.TID 0000.0001)                 3600000
(PID.TID 0000.0001)     ;
(PID.TID 0000.0001) nTimeSteps = /* Number of timesteps */
(PID.TID 0000.0001)                     730
(PID.TID 0000.0001)     ;
(PID.TID 0000.0001) nEndIter =   /* Run ending timestep number */
(PID.TID 0000.0001)                 3600730
(PID.TID 0000.0001)     ;
(PID.TID 0000.0001) baseTime =   /* Model base time ( s ) */
(PID.TID 0000.0001)                 0.000000000000000E+00
(PID.TID 0000.0001)     ;
(PID.TID 0000.0001) startTime =  /* Run start time ( s ) */
(PID.TID 0000.0001)                 1.555200000000000E+11
(PID.TID 0000.0001)     ;
(PID.TID 0000.0001) endTime  =   /* Integration ending time ( s ) */
(PID.TID 0000.0001)                 1.555515360000000E+11
(PID.TID 0000.0001)     ;
(PID.TID 0000.0001) pChkPtFreq = /* Permanent restart/pickup file interval ( s ) */
(PID.TID 0000.0001)                 3.110400000000000E+09
(PID.TID 0000.0001)     ;
(PID.TID 0000.0001) chkPtFreq  = /* Rolling restart/pickup file interval ( s ) */
(PID.TID 0000.0001)                 3.110400000000000E+09
(PID.TID 0000.0001)     ;
(PID.TID 0000.0001) pickup_write_mdsio =   /* Model IO flag. */
(PID.TID 0000.0001)                   T
(PID.TID 0000.0001)     ;
(PID.TID 0000.0001) pickup_read_mdsio =   /* Model IO flag. */
(PID.TID 0000.0001)                   T
(PID.TID 0000.0001)     ;
(PID.TID 0000.0001) writePickupAtEnd =   /* Model IO flag. */
(PID.TID 0000.0001)                   T
(PID.TID 0000.0001)     ;
(PID.TID 0000.0001) dumpFreq =   /* Model state write out interval ( s ). */
(PID.TID 0000.0001)                 2.628000000000000E+06
(PID.TID 0000.0001)     ;
(PID.TID 0000.0001) dumpInitAndLast= /* write out Initial & Last iter. model state */
(PID.TID 0000.0001)                   T
(PID.TID 0000.0001)     ;
(PID.TID 0000.0001) snapshot_mdsio =   /* Model IO flag. */
(PID.TID 0000.0001)                   T
(PID.TID 0000.0001)     ;
(PID.TID 0000.0001) monitorFreq =   /* Monitor output interval ( s ). */
(PID.TID 0000.0001)                 2.628000000000000E+06
(PID.TID 0000.0001)     ;
(PID.TID 0000.0001) monitorSelect = /* select group of variables to monitor */
(PID.TID 0000.0001)                       3
(PID.TID 0000.0001)     ;
(PID.TID 0000.0001) monitor_stdio =   /* Model IO flag. */
(PID.TID 0000.0001)                   T
(PID.TID 0000.0001)     ;
(PID.TID 0000.0001) externForcingPeriod =   /* forcing period (s) */
(PID.TID 0000.0001)                 2.592000000000000E+06
(PID.TID 0000.0001)     ;
(PID.TID 0000.0001) externForcingCycle =   /* period of the cyle (s). */
(PID.TID 0000.0001)                 3.110400000000000E+07
(PID.TID 0000.0001)     ;
(PID.TID 0000.0001) tauThetaClimRelax =   /* relaxation time scale (s) */
(PID.TID 0000.0001)                 5.184000000000000E+06
(PID.TID 0000.0001)     ;
(PID.TID 0000.0001) tauSaltClimRelax =   /* relaxation time scale (s) */
(PID.TID 0000.0001)                 7.776000000000000E+06
(PID.TID 0000.0001)     ;
(PID.TID 0000.0001) latBandClimRelax =   /* max. Lat. where relaxation */
(PID.TID 0000.0001)                 1.800000000000000E+02
(PID.TID 0000.0001)     ;
(PID.TID 0000.0001) //
(PID.TID 0000.0001) // Gridding paramters ( PARM04 in namelist )
(PID.TID 0000.0001) //
(PID.TID 0000.0001) usingCartesianGrid = /* Cartesian coordinates flag ( True/False ) */
(PID.TID 0000.0001)                   F
(PID.TID 0000.0001)     ;
(PID.TID 0000.0001) usingCylindricalGrid = /* Cylindrical coordinates flag ( True/False ) */
(PID.TID 0000.0001)                   F
(PID.TID 0000.0001)     ;
(PID.TID 0000.0001) usingSphericalPolarGrid = /* Spherical coordinates flag ( True/False ) */
(PID.TID 0000.0001)                   T
(PID.TID 0000.0001)     ;
(PID.TID 0000.0001) usingCurvilinearGrid = /* Curvilinear coordinates flag ( True/False ) */
(PID.TID 0000.0001)                   F
(PID.TID 0000.0001)     ;
(PID.TID 0000.0001) useMin4hFacEdges = /* set hFacW,S as minimum of adjacent hFacC factor */
(PID.TID 0000.0001)                   F
(PID.TID 0000.0001)     ;
(PID.TID 0000.0001) interViscAr_pCell = /* account for partial-cell in interior vert. viscosity */
(PID.TID 0000.0001)                   F
(PID.TID 0000.0001)     ;
(PID.TID 0000.0001) interDiffKr_pCell = /* account for partial-cell in interior vert. diffusion */
(PID.TID 0000.0001)                   F
(PID.TID 0000.0001)     ;
(PID.TID 0000.0001) pCellMix_select = /* option to enhance mixing near surface & bottom */
(PID.TID 0000.0001)                       0
(PID.TID 0000.0001)     ;
(PID.TID 0000.0001) selectSigmaCoord = /* Hybrid-Sigma Vert. Coordinate option */
(PID.TID 0000.0001)                       0
(PID.TID 0000.0001)     ;
(PID.TID 0000.0001) rSigmaBnd = /* r/sigma transition ( units of r ==  m ) */
(PID.TID 0000.0001)                 1.234567000000000E+05
(PID.TID 0000.0001)     ;
(PID.TID 0000.0001) rkSign =   /* index orientation relative to vertical coordinate */
(PID.TID 0000.0001)                -1.000000000000000E+00
(PID.TID 0000.0001)     ;
(PID.TID 0000.0001) gravitySign = /* gravity orientation relative to vertical coordinate */
(PID.TID 0000.0001)                -1.000000000000000E+00
(PID.TID 0000.0001)     ;
(PID.TID 0000.0001) seaLev_Z =  /* reference height of sea-level [m] */
(PID.TID 0000.0001)                 0.000000000000000E+00
(PID.TID 0000.0001)     ;
(PID.TID 0000.0001) top_Pres =  /* reference pressure at the top [Pa] */
(PID.TID 0000.0001)                 0.000000000000000E+00
(PID.TID 0000.0001)     ;
(PID.TID 0000.0001) mass2rUnit = /* convert mass per unit area [kg/m2] to r-units [m] */
(PID.TID 0000.0001)                 9.661835748792270E-04
(PID.TID 0000.0001)     ;
(PID.TID 0000.0001) rUnit2mass = /* convert r-units [m] to mass per unit area [kg/m2] */
(PID.TID 0000.0001)                 1.035000000000000E+03
(PID.TID 0000.0001)     ;
(PID.TID 0000.0001) drC =   /* C spacing ( units of r ) */
(PID.TID 0000.0001)                 5.000000000000000E+00,      /* K =  1 */
(PID.TID 0000.0001)                 1.000000000000000E+01,      /* K =  2 */
(PID.TID 0000.0001)                 1.250000000000000E+01,      /* K =  3 */
(PID.TID 0000.0001)                 1.750000000000000E+01,      /* K =  4 */
(PID.TID 0000.0001)                 2.000000000000000E+01,      /* K =  5 */
(PID.TID 0000.0001)                 2.250000000000000E+01,      /* K =  6 */
(PID.TID 0000.0001)                 3.000000000000000E+01,      /* K =  7 */
(PID.TID 0000.0001)                 4.250000000000000E+01,      /* K =  8 */
(PID.TID 0000.0001)                 6.250000000000000E+01,      /* K =  9 */
(PID.TID 0000.0001)                 8.750000000000000E+01,      /* K = 10 */
(PID.TID 0000.0001)                 1.250000000000000E+02,      /* K = 11 */
(PID.TID 0000.0001)                 1.750000000000000E+02,      /* K = 12 */
(PID.TID 0000.0001)                 2.375000000000000E+02,      /* K = 13 */
(PID.TID 0000.0001)                 3.125000000000000E+02,      /* K = 14 */
(PID.TID 0000.0001)                 3.825000000000000E+02,      /* K = 15 */
(PID.TID 0000.0001)                 4.325000000000000E+02,      /* K = 16 */
(PID.TID 0000.0001)                 4.750000000000000E+02,      /* K = 17 */
(PID.TID 0000.0001)     6 @  5.000000000000000E+02,             /* K = 18: 23 */
(PID.TID 0000.0001)                 2.500000000000000E+02       /* K = 24 */
(PID.TID 0000.0001)     ;
(PID.TID 0000.0001) drF =   /* W spacing ( units of r ) */
(PID.TID 0000.0001)     2 @  1.000000000000000E+01,             /* K =  1:  2 */
(PID.TID 0000.0001)                 1.500000000000000E+01,      /* K =  3 */
(PID.TID 0000.0001)     2 @  2.000000000000000E+01,             /* K =  4:  5 */
(PID.TID 0000.0001)                 2.500000000000000E+01,      /* K =  6 */
(PID.TID 0000.0001)                 3.500000000000000E+01,      /* K =  7 */
(PID.TID 0000.0001)                 5.000000000000000E+01,      /* K =  8 */
(PID.TID 0000.0001)                 7.500000000000000E+01,      /* K =  9 */
(PID.TID 0000.0001)                 1.000000000000000E+02,      /* K = 10 */
(PID.TID 0000.0001)                 1.500000000000000E+02,      /* K = 11 */
(PID.TID 0000.0001)                 2.000000000000000E+02,      /* K = 12 */
(PID.TID 0000.0001)                 2.750000000000000E+02,      /* K = 13 */
(PID.TID 0000.0001)                 3.500000000000000E+02,      /* K = 14 */
(PID.TID 0000.0001)                 4.150000000000000E+02,      /* K = 15 */
(PID.TID 0000.0001)                 4.500000000000000E+02,      /* K = 16 */
(PID.TID 0000.0001)     7 @  5.000000000000000E+02              /* K = 17: 23 */
(PID.TID 0000.0001)     ;
(PID.TID 0000.0001) delX = /* U spacing ( m - cartesian, degrees - spherical ) */
(PID.TID 0000.0001)   128 @  2.812500000000000E+00              /* I =  1:128 */
(PID.TID 0000.0001)     ;
(PID.TID 0000.0001) delY = /* V spacing ( m - cartesian, degrees - spherical ) */
(PID.TID 0000.0001)    64 @  2.812500000000000E+00              /* J =  1: 64 */
(PID.TID 0000.0001)     ;
(PID.TID 0000.0001) xgOrigin = /* X-axis origin of West  edge (cartesian: m, lat-lon: deg) */
(PID.TID 0000.0001)                 0.000000000000000E+00
(PID.TID 0000.0001)     ;
(PID.TID 0000.0001) ygOrigin = /* Y-axis origin of South edge (cartesian: m, lat-lon: deg) */
(PID.TID 0000.0001)                -9.000000000000000E+01
(PID.TID 0000.0001)     ;
(PID.TID 0000.0001) rSphere =  /* Radius ( ignored - cartesian, m - spherical ) */
(PID.TID 0000.0001)                 6.370000000000000E+06
(PID.TID 0000.0001)     ;
(PID.TID 0000.0001) deepAtmosphere = /* Deep/Shallow Atmosphere flag (True/False) */
(PID.TID 0000.0001)                   F
(PID.TID 0000.0001)     ;
(PID.TID 0000.0001) xC =  /* xC(:,1,:,1) : P-point X coord ( deg. or m if cartesian) */
(PID.TID 0000.0001)                 1.406250000000000E+00,      /* I =  1 */
(PID.TID 0000.0001)                 4.218750000000000E+00,      /* I =  2 */
(PID.TID 0000.0001)                 7.031250000000000E+00,      /* I =  3 */
(PID.TID 0000.0001)                 9.843750000000000E+00,      /* I =  4 */
(PID.TID 0000.0001)                 1.265625000000000E+01,      /* I =  5 */
(PID.TID 0000.0001)                 1.546875000000000E+01,      /* I =  6 */
(PID.TID 0000.0001)                 1.828125000000000E+01,      /* I =  7 */
(PID.TID 0000.0001)                 2.109375000000000E+01,      /* I =  8 */
(PID.TID 0000.0001)                 2.390625000000000E+01,      /* I =  9 */
(PID.TID 0000.0001)                 2.671875000000000E+01,      /* I = 10 */
(PID.TID 0000.0001)                 2.953125000000000E+01,      /* I = 11 */
(PID.TID 0000.0001)                 3.234375000000000E+01,      /* I = 12 */
(PID.TID 0000.0001)                 3.515625000000000E+01,      /* I = 13 */
(PID.TID 0000.0001)                 3.796875000000000E+01,      /* I = 14 */
(PID.TID 0000.0001)                 4.078125000000000E+01,      /* I = 15 */
(PID.TID 0000.0001)                 4.359375000000000E+01       /* I = 16 */
(PID.TID 0000.0001)     ;
(PID.TID 0000.0001) yC =  /* yC(1,:,1,:) : P-point Y coord ( deg. or m if cartesian) */
(PID.TID 0000.0001)                -8.859375000000000E+01,      /* J =  1 */
(PID.TID 0000.0001)                -8.578125000000000E+01,      /* J =  2 */
(PID.TID 0000.0001)                -8.296875000000000E+01,      /* J =  3 */
(PID.TID 0000.0001)                -8.015625000000000E+01,      /* J =  4 */
(PID.TID 0000.0001)                -7.734375000000000E+01,      /* J =  5 */
(PID.TID 0000.0001)                -7.453125000000000E+01,      /* J =  6 */
(PID.TID 0000.0001)                -7.171875000000000E+01,      /* J =  7 */
(PID.TID 0000.0001)                -6.890625000000000E+01,      /* J =  8 */
(PID.TID 0000.0001)                -6.609375000000000E+01,      /* J =  9 */
(PID.TID 0000.0001)                -6.328125000000000E+01,      /* J = 10 */
(PID.TID 0000.0001)                -6.046875000000000E+01,      /* J = 11 */
(PID.TID 0000.0001)                -5.765625000000000E+01,      /* J = 12 */
(PID.TID 0000.0001)                -5.484375000000000E+01,      /* J = 13 */
(PID.TID 0000.0001)                -5.203125000000000E+01,      /* J = 14 */
(PID.TID 0000.0001)                -4.921875000000000E+01,      /* J = 15 */
(PID.TID 0000.0001)                -4.640625000000000E+01       /* J = 16 */
(PID.TID 0000.0001)     ;
(PID.TID 0000.0001) rcoord = /* P-point R coordinate (  units of r ) */
(PID.TID 0000.0001)                -5.000000000000000E+00,      /* K =  1 */
(PID.TID 0000.0001)                -1.500000000000000E+01,      /* K =  2 */
(PID.TID 0000.0001)                -2.750000000000000E+01,      /* K =  3 */
(PID.TID 0000.0001)                -4.500000000000000E+01,      /* K =  4 */
(PID.TID 0000.0001)                -6.500000000000000E+01,      /* K =  5 */
(PID.TID 0000.0001)                -8.750000000000000E+01,      /* K =  6 */
(PID.TID 0000.0001)                -1.175000000000000E+02,      /* K =  7 */
(PID.TID 0000.0001)                -1.600000000000000E+02,      /* K =  8 */
(PID.TID 0000.0001)                -2.225000000000000E+02,      /* K =  9 */
(PID.TID 0000.0001)                -3.100000000000000E+02,      /* K = 10 */
(PID.TID 0000.0001)                -4.350000000000000E+02,      /* K = 11 */
(PID.TID 0000.0001)                -6.100000000000000E+02,      /* K = 12 */
(PID.TID 0000.0001)                -8.475000000000000E+02,      /* K = 13 */
(PID.TID 0000.0001)                -1.160000000000000E+03,      /* K = 14 */
(PID.TID 0000.0001)                -1.542500000000000E+03,      /* K = 15 */
(PID.TID 0000.0001)                -1.975000000000000E+03,      /* K = 16 */
(PID.TID 0000.0001)                -2.450000000000000E+03,      /* K = 17 */
(PID.TID 0000.0001)                -2.950000000000000E+03,      /* K = 18 */
(PID.TID 0000.0001)                -3.450000000000000E+03,      /* K = 19 */
(PID.TID 0000.0001)                -3.950000000000000E+03,      /* K = 20 */
(PID.TID 0000.0001)                -4.450000000000000E+03,      /* K = 21 */
(PID.TID 0000.0001)                -4.950000000000000E+03,      /* K = 22 */
(PID.TID 0000.0001)                -5.450000000000000E+03       /* K = 23 */
(PID.TID 0000.0001)     ;
(PID.TID 0000.0001) rF =   /* W-Interf. R coordinate (  units of r ) */
(PID.TID 0000.0001)                 0.000000000000000E+00,      /* K =  1 */
(PID.TID 0000.0001)                -1.000000000000000E+01,      /* K =  2 */
(PID.TID 0000.0001)                -2.000000000000000E+01,      /* K =  3 */
(PID.TID 0000.0001)                -3.500000000000000E+01,      /* K =  4 */
(PID.TID 0000.0001)                -5.500000000000000E+01,      /* K =  5 */
(PID.TID 0000.0001)                -7.500000000000000E+01,      /* K =  6 */
(PID.TID 0000.0001)                -1.000000000000000E+02,      /* K =  7 */
(PID.TID 0000.0001)                -1.350000000000000E+02,      /* K =  8 */
(PID.TID 0000.0001)                -1.850000000000000E+02,      /* K =  9 */
(PID.TID 0000.0001)                -2.600000000000000E+02,      /* K = 10 */
(PID.TID 0000.0001)                -3.600000000000000E+02,      /* K = 11 */
(PID.TID 0000.0001)                -5.100000000000000E+02,      /* K = 12 */
(PID.TID 0000.0001)                -7.100000000000000E+02,      /* K = 13 */
(PID.TID 0000.0001)                -9.850000000000000E+02,      /* K = 14 */
(PID.TID 0000.0001)                -1.335000000000000E+03,      /* K = 15 */
(PID.TID 0000.0001)                -1.750000000000000E+03,      /* K = 16 */
(PID.TID 0000.0001)                -2.200000000000000E+03,      /* K = 17 */
(PID.TID 0000.0001)                -2.700000000000000E+03,      /* K = 18 */
(PID.TID 0000.0001)                -3.200000000000000E+03,      /* K = 19 */
(PID.TID 0000.0001)                -3.700000000000000E+03,      /* K = 20 */
(PID.TID 0000.0001)                -4.200000000000000E+03,      /* K = 21 */
(PID.TID 0000.0001)                -4.700000000000000E+03,      /* K = 22 */
(PID.TID 0000.0001)                -5.200000000000000E+03,      /* K = 23 */
(PID.TID 0000.0001)                -5.700000000000000E+03       /* K = 24 */
(PID.TID 0000.0001)     ;
(PID.TID 0000.0001) deepFacC = /* deep-model grid factor @ cell-Center (-) */
(PID.TID 0000.0001)    23 @  1.000000000000000E+00              /* K =  1: 23 */
(PID.TID 0000.0001)     ;
(PID.TID 0000.0001) deepFacF = /* deep-model grid factor @ W-Interface (-) */
(PID.TID 0000.0001)    24 @  1.000000000000000E+00              /* K =  1: 24 */
(PID.TID 0000.0001)     ;
(PID.TID 0000.0001) rVel2wUnit = /* convert units: rVel -> wSpeed (=1 if z-coord)*/
(PID.TID 0000.0001)    24 @  1.000000000000000E+00              /* K =  1: 24 */
(PID.TID 0000.0001)     ;
(PID.TID 0000.0001) wUnit2rVel = /* convert units: wSpeed -> rVel (=1 if z-coord)*/
(PID.TID 0000.0001)    24 @  1.000000000000000E+00              /* K =  1: 24 */
(PID.TID 0000.0001)     ;
(PID.TID 0000.0001) dBdrRef = /* Vertical grad. of reference buoyancy [(m/s/r)^2] */
(PID.TID 0000.0001)    23 @  0.000000000000000E+00              /* K =  1: 23 */
(PID.TID 0000.0001)     ;
(PID.TID 0000.0001) rotateGrid = /* use rotated grid ( True/False ) */
(PID.TID 0000.0001)                   F
(PID.TID 0000.0001)     ;
(PID.TID 0000.0001) phiEuler = /* Euler angle, rotation about original z-coordinate [rad] */
(PID.TID 0000.0001)                 0.000000000000000E+00
(PID.TID 0000.0001)     ;
(PID.TID 0000.0001) thetaEuler = /* Euler angle, rotation about new x-coordinate [rad] */
(PID.TID 0000.0001)                 0.000000000000000E+00
(PID.TID 0000.0001)     ;
(PID.TID 0000.0001) psiEuler = /* Euler angle, rotation about new z-coordinate [rad] */
(PID.TID 0000.0001)                 0.000000000000000E+00
(PID.TID 0000.0001)     ;
(PID.TID 0000.0001) dxF =  /* dxF(:,1,:,1) ( units: m ) */
(PID.TID 0000.0001)    16 @  7.673714381622299E+03              /* I =  1: 16 */
(PID.TID 0000.0001)     ;
(PID.TID 0000.0001) dxF =  /* dxF(1,:,1,:) ( units: m ) */
(PID.TID 0000.0001)                 7.673714381622299E+03,      /* J =  1 */
(PID.TID 0000.0001)                 2.300265649478360E+04,      /* J =  2 */
(PID.TID 0000.0001)                 3.827618319365421E+04,      /* J =  3 */
(PID.TID 0000.0001)                 5.345749921461356E+04,      /* J =  4 */
(PID.TID 0000.0001)                 6.851003143764105E+04,      /* J =  5 */
(PID.TID 0000.0001)                 8.339751699416524E+04,      /* J =  6 */
(PID.TID 0000.0001)                 9.808409062749070E+04,      /* J =  7 */
(PID.TID 0000.0001)                 1.125343710953429E+05,      /* J =  8 */
(PID.TID 0000.0001)                 1.267135464063795E+05,      /* J =  9 */
(PID.TID 0000.0001)                 1.405874576853274E+05,      /* J = 10 */
(PID.TID 0000.0001)                 1.541226814647045E+05,      /* J = 11 */
(PID.TID 0000.0001)                 1.672866102048805E+05,      /* J = 12 */
(PID.TID 0000.0001)                 1.800475308484964E+05,      /* J = 13 */
(PID.TID 0000.0001)                 1.923747012199971E+05,      /* J = 14 */
(PID.TID 0000.0001)                 2.042384240862252E+05,      /* J = 15 */
(PID.TID 0000.0001)                 2.156101186996563E+05       /* J = 16 */
(PID.TID 0000.0001)     ;
(PID.TID 0000.0001) dyF =  /* dyF(:,1,:,1) ( units: m ) */
(PID.TID 0000.0001)    16 @  3.126866438026091E+05              /* I =  1: 16 */
(PID.TID 0000.0001)     ;
(PID.TID 0000.0001) dyF =  /* dyF(1,:,1,:) ( units: m ) */
(PID.TID 0000.0001)    16 @  3.126866438026091E+05              /* J =  1: 16 */
(PID.TID 0000.0001)     ;
(PID.TID 0000.0001) dxG =  /* dxG(:,1,:,1) ( units: m ) */
(PID.TID 0000.0001)    16 @  0.000000000000000E+00              /* I =  1: 16 */
(PID.TID 0000.0001)     ;
(PID.TID 0000.0001) dxG =  /* dxG(1,:,1,:) ( units: m ) */
(PID.TID 0000.0001)                 0.000000000000000E+00,      /* J =  1 */
(PID.TID 0000.0001)                 1.534280640463982E+04,      /* J =  2 */
(PID.TID 0000.0001)                 3.064865064477965E+04,      /* J =  3 */
(PID.TID 0000.0001)                 4.588065960101153E+04,      /* J =  4 */
(PID.TID 0000.0001)                 6.100213802959342E+04,      /* J =  5 */
(PID.TID 0000.0001)                 7.597665696450579E+04,      /* J =  6 */
(PID.TID 0000.0001)                 9.076814147802141E+04,      /* J =  7 */
(PID.TID 0000.0001)                 1.053409575883663E+05,      /* J =  8 */
(PID.TID 0000.0001)                 1.196599981051027E+05,      /* J =  9 */
(PID.TID 0000.0001)                 1.336907672054259E+05,      /* J = 10 */
(PID.TID 0000.0001)                 1.473994635376230E+05,      /* J = 11 */
(PID.TID 0000.0001)                 1.607530616514898E+05,      /* J = 12 */
(PID.TID 0000.0001)                 1.737193915595329E+05,      /* J = 13 */
(PID.TID 0000.0001)                 1.862672162372875E+05,      /* J = 14 */
(PID.TID 0000.0001)                 1.983663068760452E+05,      /* J = 15 */
(PID.TID 0000.0001)                 2.099875157067021E+05       /* J = 16 */
(PID.TID 0000.0001)     ;
(PID.TID 0000.0001) dyG =  /* dyG(:,1,:,1) ( units: m ) */
(PID.TID 0000.0001)    16 @  3.126866438026091E+05              /* I =  1: 16 */
(PID.TID 0000.0001)     ;
(PID.TID 0000.0001) dyG =  /* dyG(1,:,1,:) ( units: m ) */
(PID.TID 0000.0001)    16 @  3.126866438026091E+05              /* J =  1: 16 */
(PID.TID 0000.0001)     ;
(PID.TID 0000.0001) dxC =  /* dxC(:,1,:,1) ( units: m ) */
(PID.TID 0000.0001)    16 @  7.673714381622299E+03              /* I =  1: 16 */
(PID.TID 0000.0001)     ;
(PID.TID 0000.0001) dxC =  /* dxC(1,:,1,:) ( units: m ) */
(PID.TID 0000.0001)                 7.673714381622299E+03,      /* J =  1 */
(PID.TID 0000.0001)                 2.300265649478360E+04,      /* J =  2 */
(PID.TID 0000.0001)                 3.827618319365421E+04,      /* J =  3 */
(PID.TID 0000.0001)                 5.345749921461356E+04,      /* J =  4 */
(PID.TID 0000.0001)                 6.851003143764105E+04,      /* J =  5 */
(PID.TID 0000.0001)                 8.339751699416524E+04,      /* J =  6 */
(PID.TID 0000.0001)                 9.808409062749070E+04,      /* J =  7 */
(PID.TID 0000.0001)                 1.125343710953429E+05,      /* J =  8 */
(PID.TID 0000.0001)                 1.267135464063795E+05,      /* J =  9 */
(PID.TID 0000.0001)                 1.405874576853274E+05,      /* J = 10 */
(PID.TID 0000.0001)                 1.541226814647045E+05,      /* J = 11 */
(PID.TID 0000.0001)                 1.672866102048805E+05,      /* J = 12 */
(PID.TID 0000.0001)                 1.800475308484964E+05,      /* J = 13 */
(PID.TID 0000.0001)                 1.923747012199971E+05,      /* J = 14 */
(PID.TID 0000.0001)                 2.042384240862252E+05,      /* J = 15 */
(PID.TID 0000.0001)                 2.156101186996563E+05       /* J = 16 */
(PID.TID 0000.0001)     ;
(PID.TID 0000.0001) dyC =  /* dyC(:,1,:,1) ( units: m ) */
(PID.TID 0000.0001)    16 @  3.126866438026091E+05              /* I =  1: 16 */
(PID.TID 0000.0001)     ;
(PID.TID 0000.0001) dyC =  /* dyC(1,:,1,:) ( units: m ) */
(PID.TID 0000.0001)    16 @  3.126866438026091E+05              /* J =  1: 16 */
(PID.TID 0000.0001)     ;
(PID.TID 0000.0001) dxV =  /* dxV(:,1,:,1) ( units: m ) */
(PID.TID 0000.0001)    16 @  0.000000000000000E+00              /* I =  1: 16 */
(PID.TID 0000.0001)     ;
(PID.TID 0000.0001) dxV =  /* dxV(1,:,1,:) ( units: m ) */
(PID.TID 0000.0001)                 0.000000000000000E+00,      /* J =  1 */
(PID.TID 0000.0001)                 1.534280640463982E+04,      /* J =  2 */
(PID.TID 0000.0001)                 3.064865064477965E+04,      /* J =  3 */
(PID.TID 0000.0001)                 4.588065960101153E+04,      /* J =  4 */
(PID.TID 0000.0001)                 6.100213802959342E+04,      /* J =  5 */
(PID.TID 0000.0001)                 7.597665696450579E+04,      /* J =  6 */
(PID.TID 0000.0001)                 9.076814147802141E+04,      /* J =  7 */
(PID.TID 0000.0001)                 1.053409575883663E+05,      /* J =  8 */
(PID.TID 0000.0001)                 1.196599981051027E+05,      /* J =  9 */
(PID.TID 0000.0001)                 1.336907672054259E+05,      /* J = 10 */
(PID.TID 0000.0001)                 1.473994635376230E+05,      /* J = 11 */
(PID.TID 0000.0001)                 1.607530616514898E+05,      /* J = 12 */
(PID.TID 0000.0001)                 1.737193915595329E+05,      /* J = 13 */
(PID.TID 0000.0001)                 1.862672162372875E+05,      /* J = 14 */
(PID.TID 0000.0001)                 1.983663068760452E+05,      /* J = 15 */
(PID.TID 0000.0001)                 2.099875157067021E+05       /* J = 16 */
(PID.TID 0000.0001)     ;
(PID.TID 0000.0001) dyU =  /* dyU(:,1,:,1) ( units: m ) */
(PID.TID 0000.0001)    16 @  3.126866438026091E+05              /* I =  1: 16 */
(PID.TID 0000.0001)     ;
(PID.TID 0000.0001) dyU =  /* dyU(1,:,1,:) ( units: m ) */
(PID.TID 0000.0001)    16 @  3.126866438026091E+05              /* J =  1: 16 */
(PID.TID 0000.0001)     ;
(PID.TID 0000.0001) rA  =  /* rA (:,1,:,1) ( units: m^2 ) */
(PID.TID 0000.0001)    16 @  2.399227099019018E+09              /* I =  1: 16 */
(PID.TID 0000.0001)     ;
(PID.TID 0000.0001) rA  =  /* rA (1,:,1,:) ( units: m^2 ) */
(PID.TID 0000.0001)                 2.399227099019018E+09,      /* J =  1 */
(PID.TID 0000.0001)                 7.191901348828056E+09,      /* J =  2 */
(PID.TID 0000.0001)                 1.196724967835171E+10,      /* J =  3 */
(PID.TID 0000.0001)                 1.671376785519277E+10,      /* J =  4 */
(PID.TID 0000.0001)                 2.142002110131793E+10,      /* J =  5 */
(PID.TID 0000.0001)                 2.607467164043726E+10,      /* J =  6 */
(PID.TID 0000.0001)                 3.066650601170349E+10,      /* J =  7 */
(PID.TID 0000.0001)                 3.518446208391859E+10,      /* J =  8 */
(PID.TID 0000.0001)                 3.961765570517892E+10,      /* J =  9 */
(PID.TID 0000.0001)                 4.395540692374838E+10,      /* J = 10 */
(PID.TID 0000.0001)                 4.818726571700022E+10,      /* J = 11 */
(PID.TID 0000.0001)                 5.230303716643355E+10,      /* J = 12 */
(PID.TID 0000.0001)                 5.629280601812741E+10,      /* J = 13 */
(PID.TID 0000.0001)                 6.014696056945659E+10,      /* J = 14 */
(PID.TID 0000.0001)                 6.385621582452193E+10,      /* J = 15 */
(PID.TID 0000.0001)                 6.741163586252325E+10       /* J = 16 */
(PID.TID 0000.0001)     ;
(PID.TID 0000.0001) rAw =  /* rAw(:,1,:,1) ( units: m^2 ) */
(PID.TID 0000.0001)    16 @  2.399227099019018E+09              /* I =  1: 16 */
(PID.TID 0000.0001)     ;
(PID.TID 0000.0001) rAw =  /* rAw(1,:,1,:) ( units: m^2 ) */
(PID.TID 0000.0001)                 2.399227099019018E+09,      /* J =  1 */
(PID.TID 0000.0001)                 7.191901348828056E+09,      /* J =  2 */
(PID.TID 0000.0001)                 1.196724967835171E+10,      /* J =  3 */
(PID.TID 0000.0001)                 1.671376785519277E+10,      /* J =  4 */
(PID.TID 0000.0001)                 2.142002110131793E+10,      /* J =  5 */
(PID.TID 0000.0001)                 2.607467164043726E+10,      /* J =  6 */
(PID.TID 0000.0001)                 3.066650601170349E+10,      /* J =  7 */
(PID.TID 0000.0001)                 3.518446208391859E+10,      /* J =  8 */
(PID.TID 0000.0001)                 3.961765570517892E+10,      /* J =  9 */
(PID.TID 0000.0001)                 4.395540692374838E+10,      /* J = 10 */
(PID.TID 0000.0001)                 4.818726571700022E+10,      /* J = 11 */
(PID.TID 0000.0001)                 5.230303716643355E+10,      /* J = 12 */
(PID.TID 0000.0001)                 5.629280601812741E+10,      /* J = 13 */
(PID.TID 0000.0001)                 6.014696056945659E+10,      /* J = 14 */
(PID.TID 0000.0001)                 6.385621582452193E+10,      /* J = 15 */
(PID.TID 0000.0001)                 6.741163586252325E+10       /* J = 16 */
(PID.TID 0000.0001)     ;
(PID.TID 0000.0001) rAs =  /* rAs(:,1,:,1) ( units: m^2 ) */
(PID.TID 0000.0001)    16 @  0.000000000000000E+00              /* I =  1: 16 */
(PID.TID 0000.0001)     ;
(PID.TID 0000.0001) rAs =  /* rAs(1,:,1,:) ( units: m^2 ) */
(PID.TID 0000.0001)                 0.000000000000000E+00,      /* J =  1 */
(PID.TID 0000.0001)                 4.797008993346594E+09,      /* J =  2 */
(PID.TID 0000.0001)                 9.582461571859518E+09,      /* J =  3 */
(PID.TID 0000.0001)                 1.434482916112175E+10,      /* J =  4 */
(PID.TID 0000.0001)                 1.907263880047617E+10,      /* J =  5 */
(PID.TID 0000.0001)                 2.375450078239423E+10,      /* J =  6 */
(PID.TID 0000.0001)                 2.837913609127903E+10,      /* J =  7 */
(PID.TID 0000.0001)                 3.293540357560088E+10,      /* J =  8 */
(PID.TID 0000.0001)                 3.741232678790870E+10,      /* J =  9 */
(PID.TID 0000.0001)                 4.179912042805190E+10,      /* J = 10 */
(PID.TID 0000.0001)                 4.608521632591302E+10,      /* J = 11 */
(PID.TID 0000.0001)                 5.026028890105724E+10,      /* J = 12 */
(PID.TID 0000.0001)                 5.431428003795697E+10,      /* J = 13 */
(PID.TID 0000.0001)                 5.823742331687619E+10,      /* J = 14 */
(PID.TID 0000.0001)                 6.202026754202943E+10,      /* J = 15 */
(PID.TID 0000.0001)                 6.565369951034025E+10       /* J = 16 */
(PID.TID 0000.0001)     ;
(PID.TID 0000.0001) globalArea = /* Integrated horizontal Area (m^2) */
(PID.TID 0000.0001)                 3.303322488638337E+14
(PID.TID 0000.0001)     ;
(PID.TID 0000.0001) the_run_name = /* Name of this simulation */
(PID.TID 0000.0001)               'Global Biogeochemistry Model Spinup Base of Adjoint Study'
(PID.TID 0000.0001)     ;
(PID.TID 0000.0001) // =======================================================
(PID.TID 0000.0001) // End of Model config. summary
(PID.TID 0000.0001) // =======================================================
(PID.TID 0000.0001) 
(PID.TID 0000.0001) == Packages configuration : Check & print summary ==
(PID.TID 0000.0001) 
(PID.TID 0000.0001) KPP_CHECK: #define ALLOW_KPP
(PID.TID 0000.0001)  kpp_freq = /* frequency of KPP calculation */
(PID.TID 0000.0001)                 4.320000000000000E+04
(PID.TID 0000.0001)     ;
(PID.TID 0000.0001) KPP_ghatUseTotalDiffus= /* non-local term fct of total diffus */
(PID.TID 0000.0001)                   F
(PID.TID 0000.0001)     ;
(PID.TID 0000.0001) KPPuseDoubleDiff = /* include double diffusive contrib */
(PID.TID 0000.0001)                   F
(PID.TID 0000.0001)     ;
(PID.TID 0000.0001) LimitHblStable = /* limits depth of hbl if stable cond.*/
(PID.TID 0000.0001)                   T
(PID.TID 0000.0001)     ;
(PID.TID 0000.0001)  minKPPhbl = /* minimum KPPhbl value [m] */
(PID.TID 0000.0001)                 5.000000000000000E+00
(PID.TID 0000.0001)     ;
(PID.TID 0000.0001)  epsln     = /* constant [-] */
(PID.TID 0000.0001)                 9.999999999999999E-21
(PID.TID 0000.0001)     ;
(PID.TID 0000.0001)  phepsi    = /* constant [-] */
(PID.TID 0000.0001)                 1.000000000000000E-10
(PID.TID 0000.0001)     ;
(PID.TID 0000.0001)  epsilon   = /* constant [-] */
(PID.TID 0000.0001)                 1.000000000000000E-01
(PID.TID 0000.0001)     ;
(PID.TID 0000.0001)  vonk      = /* Von Karmans constant [-] */
(PID.TID 0000.0001)                 4.000000000000000E-01
(PID.TID 0000.0001)     ;
(PID.TID 0000.0001)  dB_dz     = /* maximum N^2 in mixed layer [s^-2] */
(PID.TID 0000.0001)                 5.200000000000000E-05
(PID.TID 0000.0001)     ;
(PID.TID 0000.0001)  conc1     = /* scalar constant [-] */
(PID.TID 0000.0001)                 5.000000000000000E+00
(PID.TID 0000.0001)     ;
(PID.TID 0000.0001)  conam     = /* scalar constant [-] */
(PID.TID 0000.0001)                 1.257000000000000E+00
(PID.TID 0000.0001)     ;
(PID.TID 0000.0001)  concm     = /* scalar constant [-] */
(PID.TID 0000.0001)                 8.380000000000001E+00
(PID.TID 0000.0001)     ;
(PID.TID 0000.0001)  conc2     = /* scalar constant [-] */
(PID.TID 0000.0001)                 1.600000000000000E+01
(PID.TID 0000.0001)     ;
(PID.TID 0000.0001)  conas     = /* scalar constant [-] */
(PID.TID 0000.0001)                -2.886000000000000E+01
(PID.TID 0000.0001)     ;
(PID.TID 0000.0001)  concs     = /* scalar constant [-] */
(PID.TID 0000.0001)                 9.895999999999999E+01
(PID.TID 0000.0001)     ;
(PID.TID 0000.0001)  conc3     = /* scalar constant [-] */
(PID.TID 0000.0001)                 1.600000000000000E+01
(PID.TID 0000.0001)     ;
(PID.TID 0000.0001)  zetam     = /* scalar constant [-] */
(PID.TID 0000.0001)                -2.000000000000000E-01
(PID.TID 0000.0001)     ;
(PID.TID 0000.0001)  zetas     = /* scalar constant [-] */
(PID.TID 0000.0001)                -1.000000000000000E+00
(PID.TID 0000.0001)     ;
(PID.TID 0000.0001)  Ricr      = /* critical bulk Richardson Number [-] */
(PID.TID 0000.0001)                 3.000000000000000E-01
(PID.TID 0000.0001)     ;
(PID.TID 0000.0001)  cekman    = /* coeff for Ekman depth [-] */
(PID.TID 0000.0001)                 7.000000000000000E-01
(PID.TID 0000.0001)     ;
(PID.TID 0000.0001)  cmonob    = /* coeff for Monin-Obukhov depth [-] */
(PID.TID 0000.0001)                 1.000000000000000E+00
(PID.TID 0000.0001)     ;
(PID.TID 0000.0001)  concv     = /* buoyancy freq ratio [-] */
(PID.TID 0000.0001)                 1.800000000000000E+00
(PID.TID 0000.0001)     ;
(PID.TID 0000.0001)  hbf       = /* solar radiation depth ratio [-] */
(PID.TID 0000.0001)                 1.000000000000000E+00
(PID.TID 0000.0001)     ;
(PID.TID 0000.0001)  zmin      = /* minimum for zehat in table [m3/s3] */
(PID.TID 0000.0001)                -4.000000000000000E-07
(PID.TID 0000.0001)     ;
(PID.TID 0000.0001)  zmax      = /* maximum for zehat in table [m3/s3] */
(PID.TID 0000.0001)                 0.000000000000000E+00
(PID.TID 0000.0001)     ;
(PID.TID 0000.0001)  umin      = /* minimum for ustar in table [m/s] */
(PID.TID 0000.0001)                 0.000000000000000E+00
(PID.TID 0000.0001)     ;
(PID.TID 0000.0001)  umax      = /* maximum for ustar in table [m/s] */
(PID.TID 0000.0001)                 4.000000000000000E-02
(PID.TID 0000.0001)     ;
(PID.TID 0000.0001) num_v_smooth_Ri = /* number of vertical smoothing */
(PID.TID 0000.0001)                       0
(PID.TID 0000.0001)     ;
(PID.TID 0000.0001)  Riinfty   = /* shear instability Ri number limit [-] */
(PID.TID 0000.0001)                 7.000000000000000E-01
(PID.TID 0000.0001)     ;
(PID.TID 0000.0001)  BVSQcon   = /* Brunt-Vaisala squared (=N^2) [s^-2] */
(PID.TID 0000.0001)                -2.000000000000000E-05
(PID.TID 0000.0001)     ;
(PID.TID 0000.0001)  difm0     = /* max viscosity from shear instab. [m2/s] */
(PID.TID 0000.0001)                 5.000000000000000E-03
(PID.TID 0000.0001)     ;
(PID.TID 0000.0001)  difs0     = /* max diffusiv. from shear instab. [m2/s] */
(PID.TID 0000.0001)                 5.000000000000000E-03
(PID.TID 0000.0001)     ;
(PID.TID 0000.0001)  dift0     = /* max diffusiv. from shear instab. [m2/s] */
(PID.TID 0000.0001)                 5.000000000000000E-03
(PID.TID 0000.0001)     ;
(PID.TID 0000.0001)  difmcon   = /* convective viscosity [m2/s] */
(PID.TID 0000.0001)                 1.000000000000000E-01
(PID.TID 0000.0001)     ;
(PID.TID 0000.0001)  difscon   = /* convective diffusiv. [m2/s] */
(PID.TID 0000.0001)                 1.000000000000000E-01
(PID.TID 0000.0001)     ;
(PID.TID 0000.0001)  diftcon   = /* convective diffusiv. [m2/s] */
(PID.TID 0000.0001)                 1.000000000000000E-01
(PID.TID 0000.0001)     ;
(PID.TID 0000.0001)  Rrho0     = /* double diffusion density ratio [-] */
(PID.TID 0000.0001)                 1.900000000000000E+00
(PID.TID 0000.0001)     ;
(PID.TID 0000.0001)  dsfmax    = /* max diffusiv. for salt fingering [m2/s] */
(PID.TID 0000.0001)                 1.000000000000000E-02
(PID.TID 0000.0001)     ;
(PID.TID 0000.0001)  cstar     = /* coeff for non-locak transport [-] */
(PID.TID 0000.0001)                 1.000000000000000E+01
(PID.TID 0000.0001)     ;
(PID.TID 0000.0001) KPPwriteState = /* write KPP fields to file */
(PID.TID 0000.0001)                   F
(PID.TID 0000.0001)     ;
(PID.TID 0000.0001)  kpp_dumpFreq = /* dump freq of KPP output */
(PID.TID 0000.0001)                 2.628000000000000E+06
(PID.TID 0000.0001)     ;
(PID.TID 0000.0001)  kpp_taveFreq = /* time-averaging freq of KPP output */
(PID.TID 0000.0001)                 0.000000000000000E+00
(PID.TID 0000.0001)     ;
(PID.TID 0000.0001) 
(PID.TID 0000.0001) GMREDI_CHECK: #define GMREDI
(PID.TID 0000.0001) GM_AdvForm =     /* if FALSE => use SkewFlux Form */
(PID.TID 0000.0001)                   F
(PID.TID 0000.0001)     ;
(PID.TID 0000.0001) GM_InMomAsStress = /* if TRUE => apply as Eddy Stress */
(PID.TID 0000.0001)                   F
(PID.TID 0000.0001)     ;
(PID.TID 0000.0001) GM_AdvSeparate = /* Calc Bolus & Euler Adv. separately */
(PID.TID 0000.0001)                   F
(PID.TID 0000.0001)     ;
(PID.TID 0000.0001) GM_ExtraDiag =   /* Tensor Extra Diag (line 1&2) non 0 */
(PID.TID 0000.0001)                   F
(PID.TID 0000.0001)     ;
(PID.TID 0000.0001) GM_isopycK =    /* Background Isopyc. Diffusivity [m^2/s] */
(PID.TID 0000.0001)                 1.000000000000000E+03
(PID.TID 0000.0001)     ;
(PID.TID 0000.0001) GM_skewflx*K =  /* Background GM_SkewFlx Diffusivity [m^2/s] */
(PID.TID 0000.0001)                 1.000000000000000E+03
(PID.TID 0000.0001)     ;
(PID.TID 0000.0001) GM_advec*K =    /* Backg. GM-Advec(=Bolus) Diffusivity [m^2/s]*/
(PID.TID 0000.0001)                 0.000000000000000E+00
(PID.TID 0000.0001)     ;
(PID.TID 0000.0001) GM_Kmin_horiz = /* Minimum Horizontal Diffusivity [m^2/s] */
(PID.TID 0000.0001)                 1.000000000000000E+02
(PID.TID 0000.0001)     ;
(PID.TID 0000.0001) GM_Visbeck_alpha = /* Visbeck alpha coeff. [-] */
(PID.TID 0000.0001)                 0.000000000000000E+00
(PID.TID 0000.0001)     ;
(PID.TID 0000.0001) GM_Small_Number =  /* epsilon used in slope calc */
(PID.TID 0000.0001)                 9.999999999999999E-21
(PID.TID 0000.0001)     ;
(PID.TID 0000.0001) GM_slopeSqCutoff = /* Slope^2 cut-off value */
(PID.TID 0000.0001)                 1.000000000000000E+48
(PID.TID 0000.0001)     ;
(PID.TID 0000.0001) GM_taper_scheme =  /* Type of Tapering/Clipping scheme */
(PID.TID 0000.0001)               'gkw91                                   '
(PID.TID 0000.0001)     ;
(PID.TID 0000.0001) GM_maxSlope =  /* Maximum Slope (Tapering/Clipping) */
(PID.TID 0000.0001)                 1.000000000000000E-02
(PID.TID 0000.0001)     ;
(PID.TID 0000.0001) GM_facTrL2dz = /* Minimum Trans.Layer Thick. (factor of dz) */
(PID.TID 0000.0001)                 1.000000000000000E+00
(PID.TID 0000.0001)     ;
(PID.TID 0000.0001) GM_facTrL2ML = /* Max.Trans.Layer Thick. (factor of MxL Depth)*/
(PID.TID 0000.0001)                 5.000000000000000E+00
(PID.TID 0000.0001)     ;
(PID.TID 0000.0001) GM_maxTransLay = /* Maximum Transition Layer Thickness [m] */
(PID.TID 0000.0001)                 5.000000000000000E+02
(PID.TID 0000.0001)     ;
(PID.TID 0000.0001) GM_UseBVP = /* if TRUE => use bvp a la Ferrari et al. (2010) */
(PID.TID 0000.0001)                   F
(PID.TID 0000.0001)     ;
(PID.TID 0000.0001) GM_BVP_ModeNumber = /* Vertical mode number for BVP wave speed */
(PID.TID 0000.0001)                       1
(PID.TID 0000.0001)     ;
(PID.TID 0000.0001) GM_BVP_cMin = /* Minimum wave speed for BVP [m/s] */
(PID.TID 0000.0001)                 1.000000000000000E-01
(PID.TID 0000.0001)     ;
(PID.TID 0000.0001) GM_useSubMeso = /* if TRUE => use Sub-Meso param. (B.Fox-Kemper) */
(PID.TID 0000.0001)                   F
(PID.TID 0000.0001)     ;
(PID.TID 0000.0001) subMeso_Ceff = /* efficiency coeff. of Mixed-Layer Eddies [-] */
(PID.TID 0000.0001)                 7.000000000000001E-02
(PID.TID 0000.0001)     ;
(PID.TID 0000.0001) subMeso_invTau = /* inverse of Sub-Meso mixing time-scale [/s] */
(PID.TID 0000.0001)                 2.000000000000000E-06
(PID.TID 0000.0001)     ;
(PID.TID 0000.0001) subMeso_LfMin = /* minimum length-scale "Lf" [m] */
(PID.TID 0000.0001)                 1.000000000000000E+03
(PID.TID 0000.0001)     ;
(PID.TID 0000.0001) subMeso_Lmax = /* maximum grid-scale length [m] */
(PID.TID 0000.0001)                 1.100000000000000E+05
(PID.TID 0000.0001)     ;
(PID.TID 0000.0001) PTRACERS_CHECK: #define ALLOW_PTRACERS
(PID.TID 0000.0001) // ===================================
(PID.TID 0000.0001) // PTRACERS parameters
(PID.TID 0000.0001) // ===================================
(PID.TID 0000.0001) PTRACERS_numInUse = /* number of tracers */
(PID.TID 0000.0001)                       9
(PID.TID 0000.0001)     ;
(PID.TID 0000.0001) PTRACERS_Iter0 = /* timestep number when tracers are initialized */
(PID.TID 0000.0001)                 3600000
(PID.TID 0000.0001)     ;
(PID.TID 0000.0001) PTRACERS_startAllTrc =/* all tracers start @ startTime */
(PID.TID 0000.0001)                   T
(PID.TID 0000.0001)     ;
(PID.TID 0000.0001) PTRACERS_doAB_onGpTr =/* apply AB on Tendencies (rather than on Tracers) */
(PID.TID 0000.0001)                   T
(PID.TID 0000.0001)     ;
(PID.TID 0000.0001) PTRACERS_addSrelax2EmP =/* add Salt relaxation to EmP */
(PID.TID 0000.0001)                   F
(PID.TID 0000.0001)     ;
(PID.TID 0000.0001) PTRACERS_dTLev =   /* Ptracer timestep ( s ) */
(PID.TID 0000.0001)    23 @  4.320000000000000E+04              /* K =  1: 23 */
(PID.TID 0000.0001)     ;
(PID.TID 0000.0001) PTRACERS_monitorFreq = /* Frequency^-1 for monitor output (s) */
(PID.TID 0000.0001)                 2.628000000000000E+06
(PID.TID 0000.0001)     ;
(PID.TID 0000.0001) PTRACERS_dumpFreq = /* Frequency^-1 for snapshot output (s) */
(PID.TID 0000.0001)                 2.628000000000000E+06
(PID.TID 0000.0001)     ;
(PID.TID 0000.0001) PTRACERS_taveFreq = /* Frequency^-1 for time-Aver. output (s) */
(PID.TID 0000.0001)                 0.000000000000000E+00
(PID.TID 0000.0001)     ;
(PID.TID 0000.0001) PTRACERS_useRecords = /* all tracers in 1 file */
(PID.TID 0000.0001)                   F
(PID.TID 0000.0001)     ;
(PID.TID 0000.0001) PTRACERS_timeave_mnc = /* use MNC for Tave output */
(PID.TID 0000.0001)                   F
(PID.TID 0000.0001)     ;
(PID.TID 0000.0001) PTRACERS_snapshot_mnc = /* use MNC for snapshot output */
(PID.TID 0000.0001)                   F
(PID.TID 0000.0001)     ;
(PID.TID 0000.0001) PTRACERS_pickup_write_mnc = /* use MNC for writing pickups */
(PID.TID 0000.0001)                   F
(PID.TID 0000.0001)     ;
(PID.TID 0000.0001) PTRACERS_pickup_read_mnc = /* use MNC for reading pickups */
(PID.TID 0000.0001)                   F
(PID.TID 0000.0001)     ;
(PID.TID 0000.0001)  -----------------------------------
(PID.TID 0000.0001)  tracer number :    1
(PID.TID 0000.0001) PTRACERS_names = /* Tracer short name */
(PID.TID 0000.0001)               'dic'
(PID.TID 0000.0001)     ;
(PID.TID 0000.0001) PTRACERS_long_names = /* Tracer long name */
(PID.TID 0000.0001)               'Dissolved Inorganic Carbon'
(PID.TID 0000.0001)     ;
(PID.TID 0000.0001) PTRACERS_ioLabel = /* tracer IO Label */
(PID.TID 0000.0001)               '01'
(PID.TID 0000.0001)     ;
(PID.TID 0000.0001) PTRACERS_advScheme = /* Advection Scheme */
(PID.TID 0000.0001)                      77
(PID.TID 0000.0001)     ;
(PID.TID 0000.0001) PTRACERS_SOM_Advection = /* tracer uses SOM advection scheme */
(PID.TID 0000.0001)                   F
(PID.TID 0000.0001)     ;
(PID.TID 0000.0001) PTRACERS_ImplVertAdv = /* implicit vert. advection flag */
(PID.TID 0000.0001)                   F
(PID.TID 0000.0001)     ;
(PID.TID 0000.0001) PTRACERS_MultiDimAdv = /* tracer uses Multi-Dim advection */
(PID.TID 0000.0001)                   T
(PID.TID 0000.0001)     ;
(PID.TID 0000.0001) PTRACERS_AdamsBashGtr = /* apply AB on tracer tendency */
(PID.TID 0000.0001)                   F
(PID.TID 0000.0001)     ;
(PID.TID 0000.0001) PTRACERS_AdamsBash_Tr = /* apply AB on passive tracer */
(PID.TID 0000.0001)                   F
(PID.TID 0000.0001)     ;
(PID.TID 0000.0001) PTRACERS_diffKh = /* Laplacian Diffusivity */
(PID.TID 0000.0001)                 0.000000000000000E+00
(PID.TID 0000.0001)     ;
(PID.TID 0000.0001) PTRACERS_diffK4 = /* Biharmonic Diffusivity */
(PID.TID 0000.0001)                 0.000000000000000E+00
(PID.TID 0000.0001)     ;
(PID.TID 0000.0001) PTRACERS_diffKrNr = /* Vertical Diffusivity */
(PID.TID 0000.0001)    23 @  3.000000000000000E-05              /* K =  1: 23 */
(PID.TID 0000.0001)     ;
(PID.TID 0000.0001) PTRACERS_useGMRedi = /* apply GM-Redi */
(PID.TID 0000.0001)                   T
(PID.TID 0000.0001)     ;
(PID.TID 0000.0001) PTRACERS_useDWNSLP = /* apply DOWN-SLOPE Flow */
(PID.TID 0000.0001)                   F
(PID.TID 0000.0001)     ;
(PID.TID 0000.0001) PTRACERS_useKPP = /* apply KPP scheme */
(PID.TID 0000.0001)                   T
(PID.TID 0000.0001)     ;
(PID.TID 0000.0001) PTRACERS_ref = /* Reference vertical profile */
(PID.TID 0000.0001)                 2.028200000000000E+00,      /* K =  1 */
(PID.TID 0000.0001)                 2.060900000000000E+00,      /* K =  2 */
(PID.TID 0000.0001)                 2.120600000000000E+00,      /* K =  3 */
(PID.TID 0000.0001)                 2.158100000000000E+00,      /* K =  4 */
(PID.TID 0000.0001)                 2.190400000000000E+00,      /* K =  5 */
(PID.TID 0000.0001)                 2.218800000000000E+00,      /* K =  6 */
(PID.TID 0000.0001)                 2.247400000000000E+00,      /* K =  7 */
(PID.TID 0000.0001)                 2.269900000000000E+00,      /* K =  8 */
(PID.TID 0000.0001)                 2.279200000000000E+00,      /* K =  9 */
(PID.TID 0000.0001)                 2.281400000000000E+00,      /* K = 10 */
(PID.TID 0000.0001)                 2.281500000000000E+00,      /* K = 11 */
(PID.TID 0000.0001)                 2.280600000000000E+00,      /* K = 12 */
(PID.TID 0000.0001)                 2.280000000000000E+00,      /* K = 13 */
(PID.TID 0000.0001)                 2.276000000000000E+00,      /* K = 14 */
(PID.TID 0000.0001)                 2.275800000000000E+00,      /* K = 15 */
(PID.TID 0000.0001)     8 @  0.000000000000000E+00              /* K = 16: 23 */
(PID.TID 0000.0001)     ;
(PID.TID 0000.0001) PTRACERS_EvPrRn =/* tracer conc. in Evap. & Rain */
(PID.TID 0000.0001)                 0.000000000000000E+00
(PID.TID 0000.0001)     ;
(PID.TID 0000.0001)  -----------------------------------
(PID.TID 0000.0001)  tracer number :    2
(PID.TID 0000.0001) PTRACERS_names = /* Tracer short name */
(PID.TID 0000.0001)               'alk'
(PID.TID 0000.0001)     ;
(PID.TID 0000.0001) PTRACERS_long_names = /* Tracer long name */
(PID.TID 0000.0001)               'Alkalinity'
(PID.TID 0000.0001)     ;
(PID.TID 0000.0001) PTRACERS_ioLabel = /* tracer IO Label */
(PID.TID 0000.0001)               '02'
(PID.TID 0000.0001)     ;
(PID.TID 0000.0001) PTRACERS_advScheme = /* Advection Scheme */
(PID.TID 0000.0001)                      77
(PID.TID 0000.0001)     ;
(PID.TID 0000.0001) PTRACERS_SOM_Advection = /* tracer uses SOM advection scheme */
(PID.TID 0000.0001)                   F
(PID.TID 0000.0001)     ;
(PID.TID 0000.0001) PTRACERS_ImplVertAdv = /* implicit vert. advection flag */
(PID.TID 0000.0001)                   F
(PID.TID 0000.0001)     ;
(PID.TID 0000.0001) PTRACERS_MultiDimAdv = /* tracer uses Multi-Dim advection */
(PID.TID 0000.0001)                   T
(PID.TID 0000.0001)     ;
(PID.TID 0000.0001) PTRACERS_AdamsBashGtr = /* apply AB on tracer tendency */
(PID.TID 0000.0001)                   F
(PID.TID 0000.0001)     ;
(PID.TID 0000.0001) PTRACERS_AdamsBash_Tr = /* apply AB on passive tracer */
(PID.TID 0000.0001)                   F
(PID.TID 0000.0001)     ;
(PID.TID 0000.0001) PTRACERS_diffKh = /* Laplacian Diffusivity */
(PID.TID 0000.0001)                 0.000000000000000E+00
(PID.TID 0000.0001)     ;
(PID.TID 0000.0001) PTRACERS_diffK4 = /* Biharmonic Diffusivity */
(PID.TID 0000.0001)                 0.000000000000000E+00
(PID.TID 0000.0001)     ;
(PID.TID 0000.0001) PTRACERS_diffKrNr = /* Vertical Diffusivity */
(PID.TID 0000.0001)    23 @  3.000000000000000E-05              /* K =  1: 23 */
(PID.TID 0000.0001)     ;
(PID.TID 0000.0001) PTRACERS_useGMRedi = /* apply GM-Redi */
(PID.TID 0000.0001)                   T
(PID.TID 0000.0001)     ;
(PID.TID 0000.0001) PTRACERS_useDWNSLP = /* apply DOWN-SLOPE Flow */
(PID.TID 0000.0001)                   F
(PID.TID 0000.0001)     ;
(PID.TID 0000.0001) PTRACERS_useKPP = /* apply KPP scheme */
(PID.TID 0000.0001)                   T
(PID.TID 0000.0001)     ;
(PID.TID 0000.0001) PTRACERS_ref = /* Reference vertical profile */
(PID.TID 0000.0001)                 2.308600000000000E+00,      /* K =  1 */
(PID.TID 0000.0001)                 2.314900000000000E+00,      /* K =  2 */
(PID.TID 0000.0001)                 2.316400000000000E+00,      /* K =  3 */
(PID.TID 0000.0001)                 2.311200000000000E+00,      /* K =  4 */
(PID.TID 0000.0001)                 2.309800000000000E+00,      /* K =  5 */
(PID.TID 0000.0001)                 2.316000000000000E+00,      /* K =  6 */
(PID.TID 0000.0001)                 2.331300000000000E+00,      /* K =  7 */
(PID.TID 0000.0001)                 2.351700000000000E+00,      /* K =  8 */
(PID.TID 0000.0001)                 2.366700000000000E+00,      /* K =  9 */
(PID.TID 0000.0001)                 2.376100000000000E+00,      /* K = 10 */
(PID.TID 0000.0001)                 2.383200000000000E+00,      /* K = 11 */
(PID.TID 0000.0001)                 2.386200000000000E+00,      /* K = 12 */
(PID.TID 0000.0001)                 2.388100000000000E+00,      /* K = 13 */
(PID.TID 0000.0001)                 2.386300000000000E+00,      /* K = 14 */
(PID.TID 0000.0001)                 2.386700000000000E+00,      /* K = 15 */
(PID.TID 0000.0001)     8 @  0.000000000000000E+00              /* K = 16: 23 */
(PID.TID 0000.0001)     ;
(PID.TID 0000.0001) PTRACERS_EvPrRn =/* tracer conc. in Evap. & Rain */
(PID.TID 0000.0001)                 0.000000000000000E+00
(PID.TID 0000.0001)     ;
(PID.TID 0000.0001)  -----------------------------------
(PID.TID 0000.0001)  tracer number :    3
(PID.TID 0000.0001) PTRACERS_names = /* Tracer short name */
(PID.TID 0000.0001)               'po4'
(PID.TID 0000.0001)     ;
(PID.TID 0000.0001) PTRACERS_long_names = /* Tracer long name */
(PID.TID 0000.0001)               'Phosphate'
(PID.TID 0000.0001)     ;
(PID.TID 0000.0001) PTRACERS_ioLabel = /* tracer IO Label */
(PID.TID 0000.0001)               '03'
(PID.TID 0000.0001)     ;
(PID.TID 0000.0001) PTRACERS_advScheme = /* Advection Scheme */
(PID.TID 0000.0001)                      77
(PID.TID 0000.0001)     ;
(PID.TID 0000.0001) PTRACERS_SOM_Advection = /* tracer uses SOM advection scheme */
(PID.TID 0000.0001)                   F
(PID.TID 0000.0001)     ;
(PID.TID 0000.0001) PTRACERS_ImplVertAdv = /* implicit vert. advection flag */
(PID.TID 0000.0001)                   F
(PID.TID 0000.0001)     ;
(PID.TID 0000.0001) PTRACERS_MultiDimAdv = /* tracer uses Multi-Dim advection */
(PID.TID 0000.0001)                   T
(PID.TID 0000.0001)     ;
(PID.TID 0000.0001) PTRACERS_AdamsBashGtr = /* apply AB on tracer tendency */
(PID.TID 0000.0001)                   F
(PID.TID 0000.0001)     ;
(PID.TID 0000.0001) PTRACERS_AdamsBash_Tr = /* apply AB on passive tracer */
(PID.TID 0000.0001)                   F
(PID.TID 0000.0001)     ;
(PID.TID 0000.0001) PTRACERS_diffKh = /* Laplacian Diffusivity */
(PID.TID 0000.0001)                 0.000000000000000E+00
(PID.TID 0000.0001)     ;
(PID.TID 0000.0001) PTRACERS_diffK4 = /* Biharmonic Diffusivity */
(PID.TID 0000.0001)                 0.000000000000000E+00
(PID.TID 0000.0001)     ;
(PID.TID 0000.0001) PTRACERS_diffKrNr = /* Vertical Diffusivity */
(PID.TID 0000.0001)    23 @  3.000000000000000E-05              /* K =  1: 23 */
(PID.TID 0000.0001)     ;
(PID.TID 0000.0001) PTRACERS_useGMRedi = /* apply GM-Redi */
(PID.TID 0000.0001)                   T
(PID.TID 0000.0001)     ;
(PID.TID 0000.0001) PTRACERS_useDWNSLP = /* apply DOWN-SLOPE Flow */
(PID.TID 0000.0001)                   F
(PID.TID 0000.0001)     ;
(PID.TID 0000.0001) PTRACERS_useKPP = /* apply KPP scheme */
(PID.TID 0000.0001)                   T
(PID.TID 0000.0001)     ;
(PID.TID 0000.0001) PTRACERS_ref = /* Reference vertical profile */
(PID.TID 0000.0001)                 5.438000000000000E-04,      /* K =  1 */
(PID.TID 0000.0001)                 7.821000000000000E-04,      /* K =  2 */
(PID.TID 0000.0001)                 1.133500000000000E-03,      /* K =  3 */
(PID.TID 0000.0001)                 1.491300000000000E-03,      /* K =  4 */
(PID.TID 0000.0001)                 1.860600000000000E-03,      /* K =  5 */
(PID.TID 0000.0001)                 2.198600000000000E-03,      /* K =  6 */
(PID.TID 0000.0001)                 2.396600000000000E-03,      /* K =  7 */
(PID.TID 0000.0001)                 2.418700000000000E-03,      /* K =  8 */
(PID.TID 0000.0001)                 2.404600000000000E-03,      /* K =  9 */
(PID.TID 0000.0001)                 2.329100000000000E-03,      /* K = 10 */
(PID.TID 0000.0001)                 2.292200000000000E-03,      /* K = 11 */
(PID.TID 0000.0001)                 2.288600000000000E-03,      /* K = 12 */
(PID.TID 0000.0001)                 2.260800000000000E-03,      /* K = 13 */
(PID.TID 0000.0001)                 2.235600000000000E-03,      /* K = 14 */
(PID.TID 0000.0001)                 2.229600000000000E-03,      /* K = 15 */
(PID.TID 0000.0001)     8 @  0.000000000000000E+00              /* K = 16: 23 */
(PID.TID 0000.0001)     ;
(PID.TID 0000.0001) PTRACERS_EvPrRn =/* tracer conc. in Evap. & Rain */
(PID.TID 0000.0001)                 1.234567000000000E+05
(PID.TID 0000.0001)     ;
(PID.TID 0000.0001)  -----------------------------------
(PID.TID 0000.0001)  tracer number :    4
(PID.TID 0000.0001) PTRACERS_names = /* Tracer short name */
(PID.TID 0000.0001)               'dop'
(PID.TID 0000.0001)     ;
(PID.TID 0000.0001) PTRACERS_long_names = /* Tracer long name */
(PID.TID 0000.0001)               'Dissolved Organic Phosphorus'
(PID.TID 0000.0001)     ;
(PID.TID 0000.0001) PTRACERS_ioLabel = /* tracer IO Label */
(PID.TID 0000.0001)               '04'
(PID.TID 0000.0001)     ;
(PID.TID 0000.0001) PTRACERS_advScheme = /* Advection Scheme */
(PID.TID 0000.0001)                      77
(PID.TID 0000.0001)     ;
(PID.TID 0000.0001) PTRACERS_SOM_Advection = /* tracer uses SOM advection scheme */
(PID.TID 0000.0001)                   F
(PID.TID 0000.0001)     ;
(PID.TID 0000.0001) PTRACERS_ImplVertAdv = /* implicit vert. advection flag */
(PID.TID 0000.0001)                   F
(PID.TID 0000.0001)     ;
(PID.TID 0000.0001) PTRACERS_MultiDimAdv = /* tracer uses Multi-Dim advection */
(PID.TID 0000.0001)                   T
(PID.TID 0000.0001)     ;
(PID.TID 0000.0001) PTRACERS_AdamsBashGtr = /* apply AB on tracer tendency */
(PID.TID 0000.0001)                   F
(PID.TID 0000.0001)     ;
(PID.TID 0000.0001) PTRACERS_AdamsBash_Tr = /* apply AB on passive tracer */
(PID.TID 0000.0001)                   F
(PID.TID 0000.0001)     ;
(PID.TID 0000.0001) PTRACERS_diffKh = /* Laplacian Diffusivity */
(PID.TID 0000.0001)                 0.000000000000000E+00
(PID.TID 0000.0001)     ;
(PID.TID 0000.0001) PTRACERS_diffK4 = /* Biharmonic Diffusivity */
(PID.TID 0000.0001)                 0.000000000000000E+00
(PID.TID 0000.0001)     ;
(PID.TID 0000.0001) PTRACERS_diffKrNr = /* Vertical Diffusivity */
(PID.TID 0000.0001)    23 @  3.000000000000000E-05              /* K =  1: 23 */
(PID.TID 0000.0001)     ;
(PID.TID 0000.0001) PTRACERS_useGMRedi = /* apply GM-Redi */
(PID.TID 0000.0001)                   T
(PID.TID 0000.0001)     ;
(PID.TID 0000.0001) PTRACERS_useDWNSLP = /* apply DOWN-SLOPE Flow */
(PID.TID 0000.0001)                   F
(PID.TID 0000.0001)     ;
(PID.TID 0000.0001) PTRACERS_useKPP = /* apply KPP scheme */
(PID.TID 0000.0001)                   T
(PID.TID 0000.0001)     ;
(PID.TID 0000.0001) PTRACERS_ref = /* Reference vertical profile */
(PID.TID 0000.0001)    23 @  0.000000000000000E+00              /* K =  1: 23 */
(PID.TID 0000.0001)     ;
(PID.TID 0000.0001) PTRACERS_EvPrRn =/* tracer conc. in Evap. & Rain */
(PID.TID 0000.0001)                 1.234567000000000E+05
(PID.TID 0000.0001)     ;
(PID.TID 0000.0001)  -----------------------------------
(PID.TID 0000.0001)  tracer number :    5
(PID.TID 0000.0001) PTRACERS_names = /* Tracer short name */
(PID.TID 0000.0001)               'o2'
(PID.TID 0000.0001)     ;
(PID.TID 0000.0001) PTRACERS_long_names = /* Tracer long name */
(PID.TID 0000.0001)               'Dissolved Oxygen'
(PID.TID 0000.0001)     ;
(PID.TID 0000.0001) PTRACERS_ioLabel = /* tracer IO Label */
(PID.TID 0000.0001)               '05'
(PID.TID 0000.0001)     ;
(PID.TID 0000.0001) PTRACERS_advScheme = /* Advection Scheme */
(PID.TID 0000.0001)                      77
(PID.TID 0000.0001)     ;
(PID.TID 0000.0001) PTRACERS_SOM_Advection = /* tracer uses SOM advection scheme */
(PID.TID 0000.0001)                   F
(PID.TID 0000.0001)     ;
(PID.TID 0000.0001) PTRACERS_ImplVertAdv = /* implicit vert. advection flag */
(PID.TID 0000.0001)                   F
(PID.TID 0000.0001)     ;
(PID.TID 0000.0001) PTRACERS_MultiDimAdv = /* tracer uses Multi-Dim advection */
(PID.TID 0000.0001)                   T
(PID.TID 0000.0001)     ;
(PID.TID 0000.0001) PTRACERS_AdamsBashGtr = /* apply AB on tracer tendency */
(PID.TID 0000.0001)                   F
(PID.TID 0000.0001)     ;
(PID.TID 0000.0001) PTRACERS_AdamsBash_Tr = /* apply AB on passive tracer */
(PID.TID 0000.0001)                   F
(PID.TID 0000.0001)     ;
(PID.TID 0000.0001) PTRACERS_diffKh = /* Laplacian Diffusivity */
(PID.TID 0000.0001)                 0.000000000000000E+00
(PID.TID 0000.0001)     ;
(PID.TID 0000.0001) PTRACERS_diffK4 = /* Biharmonic Diffusivity */
(PID.TID 0000.0001)                 0.000000000000000E+00
(PID.TID 0000.0001)     ;
(PID.TID 0000.0001) PTRACERS_diffKrNr = /* Vertical Diffusivity */
(PID.TID 0000.0001)    23 @  3.000000000000000E-05              /* K =  1: 23 */
(PID.TID 0000.0001)     ;
(PID.TID 0000.0001) PTRACERS_useGMRedi = /* apply GM-Redi */
(PID.TID 0000.0001)                   T
(PID.TID 0000.0001)     ;
(PID.TID 0000.0001) PTRACERS_useDWNSLP = /* apply DOWN-SLOPE Flow */
(PID.TID 0000.0001)                   F
(PID.TID 0000.0001)     ;
(PID.TID 0000.0001) PTRACERS_useKPP = /* apply KPP scheme */
(PID.TID 0000.0001)                   T
(PID.TID 0000.0001)     ;
(PID.TID 0000.0001) PTRACERS_ref = /* Reference vertical profile */
(PID.TID 0000.0001)                 2.457000000000000E-01,      /* K =  1 */
(PID.TID 0000.0001)                 2.336000000000000E-01,      /* K =  2 */
(PID.TID 0000.0001)                 1.975000000000000E-01,      /* K =  3 */
(PID.TID 0000.0001)                 1.729000000000000E-01,      /* K =  4 */
(PID.TID 0000.0001)                 1.591000000000000E-01,      /* K =  5 */
(PID.TID 0000.0001)                 1.503000000000000E-01,      /* K =  6 */
(PID.TID 0000.0001)                 1.424000000000000E-01,      /* K =  7 */
(PID.TID 0000.0001)                 1.445000000000000E-01,      /* K =  8 */
(PID.TID 0000.0001)                 1.549000000000000E-01,      /* K =  9 */
(PID.TID 0000.0001)                 1.661000000000000E-01,      /* K = 10 */
(PID.TID 0000.0001)                 1.774000000000000E-01,      /* K = 11 */
(PID.TID 0000.0001)                 1.863000000000000E-01,      /* K = 12 */
(PID.TID 0000.0001)                 1.925000000000000E-01,      /* K = 13 */
(PID.TID 0000.0001)                 2.021000000000000E-01,      /* K = 14 */
(PID.TID 0000.0001)                 2.051000000000000E-01,      /* K = 15 */
(PID.TID 0000.0001)     8 @  0.000000000000000E+00              /* K = 16: 23 */
(PID.TID 0000.0001)     ;
(PID.TID 0000.0001) PTRACERS_EvPrRn =/* tracer conc. in Evap. & Rain */
(PID.TID 0000.0001)                 1.234567000000000E+05
(PID.TID 0000.0001)     ;
(PID.TID 0000.0001)  -----------------------------------
(PID.TID 0000.0001)  tracer number :    6
(PID.TID 0000.0001) PTRACERS_names = /* Tracer short name */
(PID.TID 0000.0001)               'fe'
(PID.TID 0000.0001)     ;
(PID.TID 0000.0001) PTRACERS_long_names = /* Tracer long name */
(PID.TID 0000.0001)               'Dissolved Fe'
(PID.TID 0000.0001)     ;
(PID.TID 0000.0001) PTRACERS_ioLabel = /* tracer IO Label */
(PID.TID 0000.0001)               '06'
(PID.TID 0000.0001)     ;
(PID.TID 0000.0001) PTRACERS_advScheme = /* Advection Scheme */
(PID.TID 0000.0001)                      77
(PID.TID 0000.0001)     ;
(PID.TID 0000.0001) PTRACERS_SOM_Advection = /* tracer uses SOM advection scheme */
(PID.TID 0000.0001)                   F
(PID.TID 0000.0001)     ;
(PID.TID 0000.0001) PTRACERS_ImplVertAdv = /* implicit vert. advection flag */
(PID.TID 0000.0001)                   F
(PID.TID 0000.0001)     ;
(PID.TID 0000.0001) PTRACERS_MultiDimAdv = /* tracer uses Multi-Dim advection */
(PID.TID 0000.0001)                   T
(PID.TID 0000.0001)     ;
(PID.TID 0000.0001) PTRACERS_AdamsBashGtr = /* apply AB on tracer tendency */
(PID.TID 0000.0001)                   F
(PID.TID 0000.0001)     ;
(PID.TID 0000.0001) PTRACERS_AdamsBash_Tr = /* apply AB on passive tracer */
(PID.TID 0000.0001)                   F
(PID.TID 0000.0001)     ;
(PID.TID 0000.0001) PTRACERS_diffKh = /* Laplacian Diffusivity */
(PID.TID 0000.0001)                 0.000000000000000E+00
(PID.TID 0000.0001)     ;
(PID.TID 0000.0001) PTRACERS_diffK4 = /* Biharmonic Diffusivity */
(PID.TID 0000.0001)                 0.000000000000000E+00
(PID.TID 0000.0001)     ;
(PID.TID 0000.0001) PTRACERS_diffKrNr = /* Vertical Diffusivity */
(PID.TID 0000.0001)    23 @  3.000000000000000E-05              /* K =  1: 23 */
(PID.TID 0000.0001)     ;
(PID.TID 0000.0001) PTRACERS_useGMRedi = /* apply GM-Redi */
(PID.TID 0000.0001)                   T
(PID.TID 0000.0001)     ;
(PID.TID 0000.0001) PTRACERS_useDWNSLP = /* apply DOWN-SLOPE Flow */
(PID.TID 0000.0001)                   F
(PID.TID 0000.0001)     ;
(PID.TID 0000.0001) PTRACERS_useKPP = /* apply KPP scheme */
(PID.TID 0000.0001)                   T
(PID.TID 0000.0001)     ;
(PID.TID 0000.0001) PTRACERS_ref = /* Reference vertical profile */
(PID.TID 0000.0001)    23 @  0.000000000000000E+00              /* K =  1: 23 */
(PID.TID 0000.0001)     ;
(PID.TID 0000.0001) PTRACERS_EvPrRn =/* tracer conc. in Evap. & Rain */
(PID.TID 0000.0001)                 1.234567000000000E+05
(PID.TID 0000.0001)     ;
(PID.TID 0000.0001)  -----------------------------------
(PID.TID 0000.0001)  tracer number :    7
(PID.TID 0000.0001) PTRACERS_names = /* Tracer short name */
(PID.TID 0000.0001)               'o2pre'
(PID.TID 0000.0001)     ;
(PID.TID 0000.0001) PTRACERS_long_names = /* Tracer long name */
(PID.TID 0000.0001)               'Preformed Dissolved Oxygen'
(PID.TID 0000.0001)     ;
(PID.TID 0000.0001) PTRACERS_ioLabel = /* tracer IO Label */
(PID.TID 0000.0001)               '07'
(PID.TID 0000.0001)     ;
(PID.TID 0000.0001) PTRACERS_advScheme = /* Advection Scheme */
(PID.TID 0000.0001)                      77
(PID.TID 0000.0001)     ;
(PID.TID 0000.0001) PTRACERS_SOM_Advection = /* tracer uses SOM advection scheme */
(PID.TID 0000.0001)                   F
(PID.TID 0000.0001)     ;
(PID.TID 0000.0001) PTRACERS_ImplVertAdv = /* implicit vert. advection flag */
(PID.TID 0000.0001)                   F
(PID.TID 0000.0001)     ;
(PID.TID 0000.0001) PTRACERS_MultiDimAdv = /* tracer uses Multi-Dim advection */
(PID.TID 0000.0001)                   T
(PID.TID 0000.0001)     ;
(PID.TID 0000.0001) PTRACERS_AdamsBashGtr = /* apply AB on tracer tendency */
(PID.TID 0000.0001)                   F
(PID.TID 0000.0001)     ;
(PID.TID 0000.0001) PTRACERS_AdamsBash_Tr = /* apply AB on passive tracer */
(PID.TID 0000.0001)                   F
(PID.TID 0000.0001)     ;
(PID.TID 0000.0001) PTRACERS_diffKh = /* Laplacian Diffusivity */
(PID.TID 0000.0001)                 0.000000000000000E+00
(PID.TID 0000.0001)     ;
(PID.TID 0000.0001) PTRACERS_diffK4 = /* Biharmonic Diffusivity */
(PID.TID 0000.0001)                 0.000000000000000E+00
(PID.TID 0000.0001)     ;
(PID.TID 0000.0001) PTRACERS_diffKrNr = /* Vertical Diffusivity */
(PID.TID 0000.0001)    23 @  3.000000000000000E-05              /* K =  1: 23 */
(PID.TID 0000.0001)     ;
(PID.TID 0000.0001) PTRACERS_useGMRedi = /* apply GM-Redi */
(PID.TID 0000.0001)                   T
(PID.TID 0000.0001)     ;
(PID.TID 0000.0001) PTRACERS_useDWNSLP = /* apply DOWN-SLOPE Flow */
(PID.TID 0000.0001)                   F
(PID.TID 0000.0001)     ;
(PID.TID 0000.0001) PTRACERS_useKPP = /* apply KPP scheme */
(PID.TID 0000.0001)                   T
(PID.TID 0000.0001)     ;
(PID.TID 0000.0001) PTRACERS_ref = /* Reference vertical profile */
(PID.TID 0000.0001)    23 @  0.000000000000000E+00              /* K =  1: 23 */
(PID.TID 0000.0001)     ;
(PID.TID 0000.0001) PTRACERS_EvPrRn =/* tracer conc. in Evap. & Rain */
(PID.TID 0000.0001)                 1.234567000000000E+05
(PID.TID 0000.0001)     ;
(PID.TID 0000.0001)  -----------------------------------
(PID.TID 0000.0001)  tracer number :    8
(PID.TID 0000.0001) PTRACERS_names = /* Tracer short name */
(PID.TID 0000.0001)               'alkpre'
(PID.TID 0000.0001)     ;
(PID.TID 0000.0001) PTRACERS_long_names = /* Tracer long name */
(PID.TID 0000.0001)               'Preformed alkalinity'
(PID.TID 0000.0001)     ;
(PID.TID 0000.0001) PTRACERS_ioLabel = /* tracer IO Label */
(PID.TID 0000.0001)               '08'
(PID.TID 0000.0001)     ;
(PID.TID 0000.0001) PTRACERS_advScheme = /* Advection Scheme */
(PID.TID 0000.0001)                      77
(PID.TID 0000.0001)     ;
(PID.TID 0000.0001) PTRACERS_SOM_Advection = /* tracer uses SOM advection scheme */
(PID.TID 0000.0001)                   F
(PID.TID 0000.0001)     ;
(PID.TID 0000.0001) PTRACERS_ImplVertAdv = /* implicit vert. advection flag */
(PID.TID 0000.0001)                   F
(PID.TID 0000.0001)     ;
(PID.TID 0000.0001) PTRACERS_MultiDimAdv = /* tracer uses Multi-Dim advection */
(PID.TID 0000.0001)                   T
(PID.TID 0000.0001)     ;
(PID.TID 0000.0001) PTRACERS_AdamsBashGtr = /* apply AB on tracer tendency */
(PID.TID 0000.0001)                   F
(PID.TID 0000.0001)     ;
(PID.TID 0000.0001) PTRACERS_AdamsBash_Tr = /* apply AB on passive tracer */
(PID.TID 0000.0001)                   F
(PID.TID 0000.0001)     ;
(PID.TID 0000.0001) PTRACERS_diffKh = /* Laplacian Diffusivity */
(PID.TID 0000.0001)                 0.000000000000000E+00
(PID.TID 0000.0001)     ;
(PID.TID 0000.0001) PTRACERS_diffK4 = /* Biharmonic Diffusivity */
(PID.TID 0000.0001)                 0.000000000000000E+00
(PID.TID 0000.0001)     ;
(PID.TID 0000.0001) PTRACERS_diffKrNr = /* Vertical Diffusivity */
(PID.TID 0000.0001)    23 @  3.000000000000000E-05              /* K =  1: 23 */
(PID.TID 0000.0001)     ;
(PID.TID 0000.0001) PTRACERS_useGMRedi = /* apply GM-Redi */
(PID.TID 0000.0001)                   T
(PID.TID 0000.0001)     ;
(PID.TID 0000.0001) PTRACERS_useDWNSLP = /* apply DOWN-SLOPE Flow */
(PID.TID 0000.0001)                   F
(PID.TID 0000.0001)     ;
(PID.TID 0000.0001) PTRACERS_useKPP = /* apply KPP scheme */
(PID.TID 0000.0001)                   T
(PID.TID 0000.0001)     ;
(PID.TID 0000.0001) PTRACERS_ref = /* Reference vertical profile */
(PID.TID 0000.0001)    23 @  0.000000000000000E+00              /* K =  1: 23 */
(PID.TID 0000.0001)     ;
(PID.TID 0000.0001) PTRACERS_EvPrRn =/* tracer conc. in Evap. & Rain */
(PID.TID 0000.0001)                 1.234567000000000E+05
(PID.TID 0000.0001)     ;
(PID.TID 0000.0001)  -----------------------------------
(PID.TID 0000.0001)  tracer number :    9
(PID.TID 0000.0001) PTRACERS_names = /* Tracer short name */
(PID.TID 0000.0001)               'dicpre'
(PID.TID 0000.0001)     ;
(PID.TID 0000.0001) PTRACERS_long_names = /* Tracer long name */
(PID.TID 0000.0001)               'Preformed DIC'
(PID.TID 0000.0001)     ;
(PID.TID 0000.0001) PTRACERS_ioLabel = /* tracer IO Label */
(PID.TID 0000.0001)               '09'
(PID.TID 0000.0001)     ;
(PID.TID 0000.0001) PTRACERS_advScheme = /* Advection Scheme */
(PID.TID 0000.0001)                      77
(PID.TID 0000.0001)     ;
(PID.TID 0000.0001) PTRACERS_SOM_Advection = /* tracer uses SOM advection scheme */
(PID.TID 0000.0001)                   F
(PID.TID 0000.0001)     ;
(PID.TID 0000.0001) PTRACERS_ImplVertAdv = /* implicit vert. advection flag */
(PID.TID 0000.0001)                   F
(PID.TID 0000.0001)     ;
(PID.TID 0000.0001) PTRACERS_MultiDimAdv = /* tracer uses Multi-Dim advection */
(PID.TID 0000.0001)                   T
(PID.TID 0000.0001)     ;
(PID.TID 0000.0001) PTRACERS_AdamsBashGtr = /* apply AB on tracer tendency */
(PID.TID 0000.0001)                   F
(PID.TID 0000.0001)     ;
(PID.TID 0000.0001) PTRACERS_AdamsBash_Tr = /* apply AB on passive tracer */
(PID.TID 0000.0001)                   F
(PID.TID 0000.0001)     ;
(PID.TID 0000.0001) PTRACERS_diffKh = /* Laplacian Diffusivity */
(PID.TID 0000.0001)                 0.000000000000000E+00
(PID.TID 0000.0001)     ;
(PID.TID 0000.0001) PTRACERS_diffK4 = /* Biharmonic Diffusivity */
(PID.TID 0000.0001)                 0.000000000000000E+00
(PID.TID 0000.0001)     ;
(PID.TID 0000.0001) PTRACERS_diffKrNr = /* Vertical Diffusivity */
(PID.TID 0000.0001)    23 @  3.000000000000000E-05              /* K =  1: 23 */
(PID.TID 0000.0001)     ;
(PID.TID 0000.0001) PTRACERS_useGMRedi = /* apply GM-Redi */
(PID.TID 0000.0001)                   T
(PID.TID 0000.0001)     ;
(PID.TID 0000.0001) PTRACERS_useDWNSLP = /* apply DOWN-SLOPE Flow */
(PID.TID 0000.0001)                   F
(PID.TID 0000.0001)     ;
(PID.TID 0000.0001) PTRACERS_useKPP = /* apply KPP scheme */
(PID.TID 0000.0001)                   T
(PID.TID 0000.0001)     ;
(PID.TID 0000.0001) PTRACERS_ref = /* Reference vertical profile */
(PID.TID 0000.0001)    23 @  0.000000000000000E+00              /* K =  1: 23 */
(PID.TID 0000.0001)     ;
(PID.TID 0000.0001) PTRACERS_EvPrRn =/* tracer conc. in Evap. & Rain */
(PID.TID 0000.0001)                 1.234567000000000E+05
(PID.TID 0000.0001)     ;
(PID.TID 0000.0001)  -----------------------------------
(PID.TID 0000.0001) GCHEM_CHECK  --> Starts to check GCHEM set-up
(PID.TID 0000.0001) GCHEM_CHECK  <-- Ends Normally
(PID.TID 0000.0001) 
(PID.TID 0000.0001) CTRL_CHECK: #define ALLOW_CTRL
(PID.TID 0000.0001) COST_CHECK: #define ALLOW_COST
(PID.TID 0000.0001) entering boxmean/horflux check,k,using_gencost(k): ,  1    T
(PID.TID 0000.0001) etaday defined by gencost   0
(PID.TID 0000.0001) GAD_CHECK: #define ALLOW_GENERIC_ADVDIFF
(PID.TID 0000.0001) // =======================================================
(PID.TID 0000.0001) // Check Model config. (CONFIG_CHECK):
(PID.TID 0000.0001) // CONFIG_CHECK : Normal End
(PID.TID 0000.0001) // =======================================================
(PID.TID 0000.0001) 
 DIC_SURFFORCING_INIT, it=   3600000 : Reading new data, i0,i1=   12    1
 QQ: pCO2 approximation method
 QQ first guess pH 8.2869849781645275,  7.129213793781922,  34.1535348423009,  2.0282,  5.43799999999999991E-4,  8.08490416966378689E-3,  2.3086000000000002
(PID.TID 0000.0001) whio : create lev 3 rec  29
(PID.TID 0000.0001) whio : write lev 3 rec   1
(PID.TID 0000.0001) whio : create lev 2 rec  29
 EXTERNAL_FIELDS_LOAD, it=   3600000 : Reading new data, i0,i1=   12    1 (prev=   12    0 )
 DIC_FIELDS_LOAD, it=   3600000 : Reading new data, i0,i1=   12    1 (prev=   12    0 )
 cg2d: Sum(rhs),rhsMax =  -9.92433868418630E-08  8.73439671821315E+00
 cg2d: Sum(rhs),rhsMax =  -9.91844260056496E-08  8.73957958587058E+00
 cg2d: Sum(rhs),rhsMax =  -9.91252449011881E-08  8.74478969091806E+00
 cg2d: Sum(rhs),rhsMax =  -9.90665185440776E-08  8.75002495477880E+00
 cg2d: Sum(rhs),rhsMax =  -9.90068542705558E-08  8.75528284057604E+00
 cg2d: Sum(rhs),rhsMax =  -9.89473534218632E-08  8.76056047500076E+00
 cg2d: Sum(rhs),rhsMax =  -9.88878241514612E-08  8.76585475900637E+00
 cg2d: Sum(rhs),rhsMax =  -9.88279893476829E-08  8.77116249138180E+00
 cg2d: Sum(rhs),rhsMax =  -9.87682469144602E-08  8.77648047471154E+00
 cg2d: Sum(rhs),rhsMax =  -9.87087602766223E-08  8.78180560756084E+00
 cg2d: Sum(rhs),rhsMax =  -9.86489112619893E-08  8.78713494778165E+00
 cg2d: Sum(rhs),rhsMax =  -9.85891404070571E-08  8.79246575399440E+00
 cg2d: Sum(rhs),rhsMax =  -9.85293340249882E-08  8.79779549299699E+00
 cg2d: Sum(rhs),rhsMax =  -9.84700747608258E-08  8.80312181092759E+00
 cg2d: Sum(rhs),rhsMax =  -9.84108581292276E-08  8.80844249631459E+00
 cg2d: Sum(rhs),rhsMax =  -9.83516486030567E-08  8.81375547068360E+00
 cg2d: Sum(rhs),rhsMax =  -9.82926522397065E-08  8.81905885446822E+00
 cg2d: Sum(rhs),rhsMax =  -9.82337553523394E-08  8.82435106608147E+00
 cg2d: Sum(rhs),rhsMax =  -9.81751568929212E-08  8.82963093738125E+00
 cg2d: Sum(rhs),rhsMax =  -9.81166650149135E-08  8.83489782452132E+00
 cg2d: Sum(rhs),rhsMax =  -9.80585213028462E-08  8.84015168145881E+00
 cg2d: Sum(rhs),rhsMax =  -9.80007470730015E-08  8.84539306572338E+00
 cg2d: Sum(rhs),rhsMax =  -9.79429586323022E-08  8.85062306296846E+00
 cg2d: Sum(rhs),rhsMax =  -9.78853904598509E-08  8.85584316140559E+00
 cg2d: Sum(rhs),rhsMax =  -9.78280425556477E-08  8.86105508303604E+00
 cg2d: Sum(rhs),rhsMax =  -9.77709291305473E-08  8.86626061391844E+00
 cg2d: Sum(rhs),rhsMax =  -9.77132472712583E-08  8.87146147123075E+00
 cg2d: Sum(rhs),rhsMax =  -9.76563327981239E-08  8.87665923110881E+00
 cg2d: Sum(rhs),rhsMax =  -9.75990843699037E-08  8.88185530584736E+00
 cg2d: Sum(rhs),rhsMax =  -9.75420704207863E-08  8.88705095973601E+00
 EXTERNAL_FIELDS_LOAD, it=   3600030 : Reading new data, i0,i1=    1    2 (prev=   12    1 )
 DIC_FIELDS_LOAD, it=   3600030 : Reading new data, i0,i1=    1    2 (prev=   12    1 )
 cg2d: Sum(rhs),rhsMax =  -9.74853406887632E-08  8.89224735691429E+00
 cg2d: Sum(rhs),rhsMax =  -9.74287814869967E-08  8.89742706375180E+00
 cg2d: Sum(rhs),rhsMax =  -9.73723857100595E-08  8.90258000132907E+00
 cg2d: Sum(rhs),rhsMax =  -9.73164659967551E-08  8.90769672951691E+00
 cg2d: Sum(rhs),rhsMax =  -9.72612284044772E-08  8.91276878246959E+00
 cg2d: Sum(rhs),rhsMax =  -9.72070637317302E-08  8.91778889429735E+00
 cg2d: Sum(rhs),rhsMax =  -9.71530482729577E-08  8.92275113682099E+00
 cg2d: Sum(rhs),rhsMax =  -9.70993241367069E-08  8.92765100404361E+00
 cg2d: Sum(rhs),rhsMax =  -9.70471916161841E-08  8.93248545016401E+00
 cg2d: Sum(rhs),rhsMax =  -9.69955280538670E-08  8.93725287491615E+00
 cg2d: Sum(rhs),rhsMax =  -9.69441273923621E-08  8.94195305183593E+00
 cg2d: Sum(rhs),rhsMax =  -9.68941833434656E-08  8.94658701582531E+00
 cg2d: Sum(rhs),rhsMax =  -9.68450208915783E-08  8.95115692214719E+00
 cg2d: Sum(rhs),rhsMax =  -9.67962705544778E-08  8.95566589123099E+00
 cg2d: Sum(rhs),rhsMax =  -9.67482165492584E-08  8.96011786358850E+00
 cg2d: Sum(rhs),rhsMax =  -9.67008020325011E-08  8.96451747891563E+00
 cg2d: Sum(rhs),rhsMax =  -9.66539346336504E-08  8.96886998187158E+00
 cg2d: Sum(rhs),rhsMax =  -9.66078843589457E-08  8.97318115409823E+00
 cg2d: Sum(rhs),rhsMax =  -9.65621254067628E-08  8.97745726495199E+00
 cg2d: Sum(rhs),rhsMax =  -9.65159685506478E-08  8.98170502198163E+00
 cg2d: Sum(rhs),rhsMax =  -9.64709272466280E-08  8.98593151889555E+00
 cg2d: Sum(rhs),rhsMax =  -9.64258006774799E-08  8.99014423145949E+00
 cg2d: Sum(rhs),rhsMax =  -9.63806954246138E-08  8.99435085408351E+00
 cg2d: Sum(rhs),rhsMax =  -9.63354978011921E-08  8.99855914272681E+00
 cg2d: Sum(rhs),rhsMax =  -9.62904493917449E-08  9.00277662786875E+00
 cg2d: Sum(rhs),rhsMax =  -9.62449746566563E-08  9.00700998220796E+00
(PID.TID 0000.0001) // =======================================================
(PID.TID 0000.0001) // Begin MONITOR dynamic field statistics
(PID.TID 0000.0001) // =======================================================
(PID.TID 0000.0001) %MON time_tsnumber                =               3600056
(PID.TID 0000.0001) %MON time_secondsf                =   1.5552241920000E+11
(PID.TID 0000.0001) %MON dynstat_eta_max              =   8.6694465849543E-01
(PID.TID 0000.0001) %MON dynstat_eta_min              =  -1.5884561253100E+00
(PID.TID 0000.0001) %MON dynstat_eta_mean             =   3.0205684588982E-11
(PID.TID 0000.0001) %MON dynstat_eta_sd               =   6.1091713307687E-01
(PID.TID 0000.0001) %MON dynstat_eta_del2             =   1.2142491953877E-03
(PID.TID 0000.0001) %MON dynstat_uvel_max             =   3.2781465356308E-01
(PID.TID 0000.0001) %MON dynstat_uvel_min             =  -5.5616385852428E-01
(PID.TID 0000.0001) %MON dynstat_uvel_mean            =   1.8017830420518E-03
(PID.TID 0000.0001) %MON dynstat_uvel_sd              =   1.4505661457130E-02
(PID.TID 0000.0001) %MON dynstat_uvel_del2            =   6.6430206076897E-05
(PID.TID 0000.0001) %MON dynstat_vvel_max             =   2.5763769201218E-01
(PID.TID 0000.0001) %MON dynstat_vvel_min             =  -3.7367677116195E-01
(PID.TID 0000.0001) %MON dynstat_vvel_mean            =  -1.5357266132779E-04
(PID.TID 0000.0001) %MON dynstat_vvel_sd              =   8.3185189111049E-03
(PID.TID 0000.0001) %MON dynstat_vvel_del2            =   5.0088956720369E-05
(PID.TID 0000.0001) %MON dynstat_wvel_max             =   6.1198527662758E-05
(PID.TID 0000.0001) %MON dynstat_wvel_min             =  -7.6548621379746E-05
(PID.TID 0000.0001) %MON dynstat_wvel_mean            =  -6.1554689943880E-24
(PID.TID 0000.0001) %MON dynstat_wvel_sd              =   2.4671941676322E-06
(PID.TID 0000.0001) %MON dynstat_wvel_del2            =   1.4669687226477E-08
(PID.TID 0000.0001) %MON dynstat_theta_max            =   3.3760174314380E+01
(PID.TID 0000.0001) %MON dynstat_theta_min            =  -2.3612076113799E+00
(PID.TID 0000.0001) %MON dynstat_theta_mean           =   4.0724121384625E+00
(PID.TID 0000.0001) %MON dynstat_theta_sd             =   4.2498992842555E+00
(PID.TID 0000.0001) %MON dynstat_theta_del2           =   2.7107281636167E-03
(PID.TID 0000.0001) %MON dynstat_salt_max             =   3.7561504754260E+01
(PID.TID 0000.0001) %MON dynstat_salt_min             =   3.1373904177717E+01
(PID.TID 0000.0001) %MON dynstat_salt_mean            =   3.5041047263241E+01
(PID.TID 0000.0001) %MON dynstat_salt_sd              =   3.0799922598812E-01
(PID.TID 0000.0001) %MON dynstat_salt_del2            =   3.7026424055506E-04
(PID.TID 0000.0001) %MON dynstat_sst_max              =   3.3760174314380E+01
(PID.TID 0000.0001) %MON dynstat_sst_min              =  -2.2501710714609E+00
(PID.TID 0000.0001) %MON dynstat_sst_mean             =   1.9042156385418E+01
(PID.TID 0000.0001) %MON dynstat_sst_sd               =   9.3201728221610E+00
(PID.TID 0000.0001) %MON dynstat_sst_del2             =   1.8943418962500E-02
(PID.TID 0000.0001) %MON dynstat_sss_max              =   3.7561402702332E+01
(PID.TID 0000.0001) %MON dynstat_sss_min              =   3.1373904177717E+01
(PID.TID 0000.0001) %MON dynstat_sss_mean             =   3.4878082792201E+01
(PID.TID 0000.0001) %MON dynstat_sss_sd               =   9.3615708858933E-01
(PID.TID 0000.0001) %MON dynstat_sss_del2             =   2.6376275275522E-03
(PID.TID 0000.0001) %MON forcing_qnet_max             =   4.3112854003906E+02
(PID.TID 0000.0001) %MON forcing_qnet_min             =  -1.9101640446981E+02
(PID.TID 0000.0001) %MON forcing_qnet_mean            =  -1.7356494315507E+01
(PID.TID 0000.0001) %MON forcing_qnet_sd              =   1.0114087586111E+02
(PID.TID 0000.0001) %MON forcing_qnet_del2            =   2.7500351287535E-01
(PID.TID 0000.0001) %MON forcing_qsw_max              =   0.0000000000000E+00
(PID.TID 0000.0001) %MON forcing_qsw_min              =   0.0000000000000E+00
(PID.TID 0000.0001) %MON forcing_qsw_mean             =   0.0000000000000E+00
(PID.TID 0000.0001) %MON forcing_qsw_sd               =   0.0000000000000E+00
(PID.TID 0000.0001) %MON forcing_qsw_del2             =   0.0000000000000E+00
(PID.TID 0000.0001) %MON forcing_empmr_max            =   6.6865915471226E-05
(PID.TID 0000.0001) %MON forcing_empmr_min            =  -1.5018765964214E-04
(PID.TID 0000.0001) %MON forcing_empmr_mean           =   7.7320599494481E-09
(PID.TID 0000.0001) %MON forcing_empmr_sd             =   2.3858729798697E-05
(PID.TID 0000.0001) %MON forcing_empmr_del2           =   1.1192342175733E-07
(PID.TID 0000.0001) %MON forcing_fu_max               =   2.7884401629368E-01
(PID.TID 0000.0001) %MON forcing_fu_min               =  -1.6695598388712E-01
(PID.TID 0000.0001) %MON forcing_fu_mean              =   1.8291801320865E-02
(PID.TID 0000.0001) %MON forcing_fu_sd                =   8.9977211948963E-02
(PID.TID 0000.0001) %MON forcing_fu_del2              =   2.5884844050864E-04
(PID.TID 0000.0001) %MON forcing_fv_max               =   1.8999957789977E-01
(PID.TID 0000.0001) %MON forcing_fv_min               =  -1.6370410472155E-01
(PID.TID 0000.0001) %MON forcing_fv_mean              =  -6.4421591270382E-03
(PID.TID 0000.0001) %MON forcing_fv_sd                =   4.4524497971503E-02
(PID.TID 0000.0001) %MON forcing_fv_del2              =   1.8602013066806E-04
(PID.TID 0000.0001) %MON trAdv_CFL_u_max              =   7.6869065937797E-02
(PID.TID 0000.0001) %MON trAdv_CFL_v_max              =   5.1584770178993E-02
(PID.TID 0000.0001) %MON trAdv_CFL_w_max              =   4.5490874479040E-02
(PID.TID 0000.0001) %MON advcfl_uvel_max              =   7.6861348607668E-02
(PID.TID 0000.0001) %MON advcfl_vvel_max              =   5.1626242547113E-02
(PID.TID 0000.0001) %MON advcfl_wvel_max              =   4.0057024787132E-02
(PID.TID 0000.0001) %MON advcfl_W_hf_max              =   4.5490874479040E-02
(PID.TID 0000.0001) %MON pe_b_mean                    =   4.8098645864243E-04
(PID.TID 0000.0001) %MON ke_max                       =   1.6599847201411E-01
(PID.TID 0000.0001) %MON ke_mean                      =   1.3095634984425E-04
(PID.TID 0000.0001) %MON ke_vol                       =   1.2572502945428E+18
(PID.TID 0000.0001) %MON vort_r_min                   =  -1.0648402230920E-06
(PID.TID 0000.0001) %MON vort_r_max                   =   1.2927048867230E-06
(PID.TID 0000.0001) %MON vort_a_mean                  =  -2.3966255162188E-05
(PID.TID 0000.0001) %MON vort_a_sd                    =   7.3206887038566E-05
(PID.TID 0000.0001) %MON vort_p_mean                  =  -2.8692533918785E-05
(PID.TID 0000.0001) %MON vort_p_sd                    =   1.1861213869289E-04
(PID.TID 0000.0001) %MON surfExpan_theta_mean         =   3.5028147200651E-08
(PID.TID 0000.0001) %MON surfExpan_salt_mean          =   9.3398197395093E-09
(PID.TID 0000.0001) // =======================================================
(PID.TID 0000.0001) // End MONITOR dynamic field statistics
(PID.TID 0000.0001) // =======================================================
(PID.TID 0000.0001) // =======================================================
(PID.TID 0000.0001) // Begin MONITOR ptracer field statistics
(PID.TID 0000.0001) // =======================================================
(PID.TID 0000.0001) %MON trcstat_ptracer01_max        =   2.2891398990462E+00
(PID.TID 0000.0001) %MON trcstat_ptracer01_min        =  -2.8872939465309E-03
(PID.TID 0000.0001) %MON trcstat_ptracer01_mean       =   9.8393712367711E-01
(PID.TID 0000.0001) %MON trcstat_ptracer01_sd         =   1.1206656970767E+00
(PID.TID 0000.0001) %MON trcstat_ptracer01_del2       =   2.7033585999121E-04
(PID.TID 0000.0001) %MON trcstat_ptracer02_max        =   2.3962155244644E+00
(PID.TID 0000.0001) %MON trcstat_ptracer02_min        =  -3.0309253378726E-03
(PID.TID 0000.0001) %MON trcstat_ptracer02_mean       =   1.0312154269130E+00
(PID.TID 0000.0001) %MON trcstat_ptracer02_sd         =   1.1743494829748E+00
(PID.TID 0000.0001) %MON trcstat_ptracer02_del2       =   2.8220142790468E-04
(PID.TID 0000.0001) %MON trcstat_ptracer03_max        =   2.4214921611964E-03
(PID.TID 0000.0001) %MON trcstat_ptracer03_min        =  -2.7886512598340E-06
(PID.TID 0000.0001) %MON trcstat_ptracer03_mean       =   9.6592807331046E-04
(PID.TID 0000.0001) %MON trcstat_ptracer03_sd         =   1.1082604513865E-03
(PID.TID 0000.0001) %MON trcstat_ptracer03_del2       =   3.8973525700436E-07
(PID.TID 0000.0001) %MON trcstat_ptracer04_max        =   9.5013836037419E-05
(PID.TID 0000.0001) %MON trcstat_ptracer04_min        =  -3.0338017452390E-09
(PID.TID 0000.0001) %MON trcstat_ptracer04_mean       =   5.7716042100272E-08
(PID.TID 0000.0001) %MON trcstat_ptracer04_sd         =   1.1899878644247E-06
(PID.TID 0000.0001) %MON trcstat_ptracer04_del2       =   5.2996271993731E-09
(PID.TID 0000.0001) %MON trcstat_ptracer05_max        =   3.7832392414670E-01
(PID.TID 0000.0001) %MON trcstat_ptracer05_min        =  -2.6165370992647E-04
(PID.TID 0000.0001) %MON trcstat_ptracer05_mean       =   8.2460966479265E-02
(PID.TID 0000.0001) %MON trcstat_ptracer05_sd         =   9.4739431219315E-02
(PID.TID 0000.0001) %MON trcstat_ptracer05_del2       =   4.7622853767452E-05
(PID.TID 0000.0001) %MON trcstat_ptracer06_max        =   1.0330382245400E-06
(PID.TID 0000.0001) %MON trcstat_ptracer06_min        =  -2.7201936868252E-12
(PID.TID 0000.0001) %MON trcstat_ptracer06_mean       =   1.1582246153336E-10
(PID.TID 0000.0001) %MON trcstat_ptracer06_sd         =   3.6951093531014E-09
(PID.TID 0000.0001) %MON trcstat_ptracer06_del2       =   2.7009850346994E-11
(PID.TID 0000.0001) %MON trcstat_ptracer07_max        =   3.7832392414670E-01
(PID.TID 0000.0001) %MON trcstat_ptracer07_min        =  -2.2343091734653E-03
(PID.TID 0000.0001) %MON trcstat_ptracer07_mean       =   3.1273123519597E-03
(PID.TID 0000.0001) %MON trcstat_ptracer07_sd         =   2.4412074247666E-02
(PID.TID 0000.0001) %MON trcstat_ptracer07_del2       =   9.6982036140123E-05
(PID.TID 0000.0001) %MON trcstat_ptracer08_max        =   2.3758419907099E+00
(PID.TID 0000.0001) %MON trcstat_ptracer08_min        =  -2.0647636744128E-02
(PID.TID 0000.0001) %MON trcstat_ptracer08_mean       =   3.0049738632596E-02
(PID.TID 0000.0001) %MON trcstat_ptracer08_sd         =   2.3225719330149E-01
(PID.TID 0000.0001) %MON trcstat_ptracer08_del2       =   8.5373781399122E-04
(PID.TID 0000.0001) %MON trcstat_ptracer09_max        =   2.2565117408849E+00
(PID.TID 0000.0001) %MON trcstat_ptracer09_min        =  -1.9388014962643E-02
(PID.TID 0000.0001) %MON trcstat_ptracer09_mean       =   2.7374334064929E-02
(PID.TID 0000.0001) %MON trcstat_ptracer09_sd         =   2.1142279053181E-01
(PID.TID 0000.0001) %MON trcstat_ptracer09_del2       =   7.8760733128981E-04
(PID.TID 0000.0001) // =======================================================
(PID.TID 0000.0001) // End MONITOR ptracer field statistics
(PID.TID 0000.0001) // =======================================================
 cg2d: Sum(rhs),rhsMax =  -9.61997557169525E-08  9.01126574761483E+00
 cg2d: Sum(rhs),rhsMax =  -9.61540180810516E-08  9.01555039729210E+00
 cg2d: Sum(rhs),rhsMax =  -9.61077120109621E-08  9.01986971435378E+00
 cg2d: Sum(rhs),rhsMax =  -9.60613775191632E-08  9.02422880815445E+00
 cg2d: Sum(rhs),rhsMax =  -9.60143182737738E-08  9.02863205182447E+00
 cg2d: Sum(rhs),rhsMax =  -9.59668398081703E-08  9.03308295193821E+00
 cg2d: Sum(rhs),rhsMax =  -9.59189492277801E-08  9.03758400719746E+00
 cg2d: Sum(rhs),rhsMax =  -9.58706323217484E-08  9.04213663854453E+00
 cg2d: Sum(rhs),rhsMax =  -9.58215622404168E-08  9.04674109185253E+00
 cg2d: Sum(rhs),rhsMax =  -9.57721724148541E-08  9.05139640217902E+00
 cg2d: Sum(rhs),rhsMax =  -9.57223775799321E-08  9.05610040614876E+00
 cg2d: Sum(rhs),rhsMax =  -9.56718224642827E-08  9.06084979109159E+00
 cg2d: Sum(rhs),rhsMax =  -9.56211039238042E-08  9.06564017672268E+00
 cg2d: Sum(rhs),rhsMax =  -9.55700798499493E-08  9.07046622792088E+00
 cg2d: Sum(rhs),rhsMax =  -9.55189918272481E-08  9.07532179655311E+00
 cg2d: Sum(rhs),rhsMax =  -9.54672145780933E-08  9.08020008054443E+00
 cg2d: Sum(rhs),rhsMax =  -9.54156860188959E-08  9.08509379067778E+00
 cg2d: Sum(rhs),rhsMax =  -9.53640864054250E-08  9.08999532389517E+00
 cg2d: Sum(rhs),rhsMax =  -9.53120391500306E-08  9.09489685062687E+00
 cg2d: Sum(rhs),rhsMax =  -9.52604963799786E-08  9.09979078670731E+00
 cg2d: Sum(rhs),rhsMax =  -9.52091738781746E-08  9.10466952325132E+00
 cg2d: Sum(rhs),rhsMax =  -9.51581995423112E-08  9.10952586151125E+00
 cg2d: Sum(rhs),rhsMax =  -9.51075378452515E-08  9.11435305322486E+00
 cg2d: Sum(rhs),rhsMax =  -9.50568974644739E-08  9.11914489544444E+00
 cg2d: Sum(rhs),rhsMax =  -9.50070173644235E-08  9.12389583482653E+00
 cg2d: Sum(rhs),rhsMax =  -9.49582670273230E-08  9.12860106773695E+00
 cg2d: Sum(rhs),rhsMax =  -9.49094669522310E-08  9.13325671324743E+00
 cg2d: Sum(rhs),rhsMax =  -9.48612637330370E-08  9.13785989332165E+00
 cg2d: Sum(rhs),rhsMax =  -9.48139060596986E-08  9.14240888612431E+00
 cg2d: Sum(rhs),rhsMax =  -9.47671381368309E-08  9.14690322805975E+00
 cg2d: Sum(rhs),rhsMax =  -9.47210025969980E-08  9.15134376400067E+00
 cg2d: Sum(rhs),rhsMax =  -9.46753857533622E-08  9.15573262291172E+00
 cg2d: Sum(rhs),rhsMax =  -9.46305078741716E-08  9.16007311317651E+00
 cg2d: Sum(rhs),rhsMax =  -9.45855020972886E-08  9.16436954661381E+00
 EXTERNAL_FIELDS_LOAD, it=   3600090 : Reading new data, i0,i1=    2    3 (prev=    1    2 )
 DIC_FIELDS_LOAD, it=   3600090 : Reading new data, i0,i1=    2    3 (prev=    1    2 )
 cg2d: Sum(rhs),rhsMax =  -9.45416047670733E-08  9.16862700792054E+00
 cg2d: Sum(rhs),rhsMax =  -9.44977784911316E-08  9.17286965792043E+00
 cg2d: Sum(rhs),rhsMax =  -9.44538882663437E-08  9.17711460232796E+00
 cg2d: Sum(rhs),rhsMax =  -9.44097777733077E-08  9.18137827264839E+00
 cg2d: Sum(rhs),rhsMax =  -9.43655606988614E-08  9.18567586102450E+00
 cg2d: Sum(rhs),rhsMax =  -9.43208533499273E-08  9.19002086507332E+00
 cg2d: Sum(rhs),rhsMax =  -9.42755065125311E-08  9.19442473147613E+00
 cg2d: Sum(rhs),rhsMax =  -9.42294988703907E-08  9.19889660310093E+00
 cg2d: Sum(rhs),rhsMax =  -9.41831217460276E-08  9.20344317156002E+00
 cg2d: Sum(rhs),rhsMax =  -9.41357711781166E-08  9.20806863385625E+00
 cg2d: Sum(rhs),rhsMax =  -9.40875679589226E-08  9.21277472508850E+00
 cg2d: Sum(rhs),rhsMax =  -9.40387323566938E-08  9.21756082935263E+00
 cg2d: Sum(rhs),rhsMax =  -9.39891506845925E-08  9.22242415169496E+00
 cg2d: Sum(rhs),rhsMax =  -9.39387589937724E-08  9.22735992735964E+00
 cg2d: Sum(rhs),rhsMax =  -9.38874578082505E-08  9.23236166048178E+00
 cg2d: Sum(rhs),rhsMax =  -9.38360713576003E-08  9.23742136926884E+00
 cg2d: Sum(rhs),rhsMax =  -9.37847204340869E-08  9.24252982829311E+00
 cg2d: Sum(rhs),rhsMax =  -9.37326518624104E-08  9.24767682825910E+00
 cg2d: Sum(rhs),rhsMax =  -9.36799651185538E-08  9.25285135651627E+00
 cg2d: Sum(rhs),rhsMax =  -9.36278468088858E-08  9.25804181556396E+00
 cg2d: Sum(rhs),rhsMax =  -9.35753803332773E-08  9.26323624437734E+00
 cg2d: Sum(rhs),rhsMax =  -9.35233543941649E-08  9.26842252954541E+00
 cg2d: Sum(rhs),rhsMax =  -9.34712076627875E-08  9.27358855590945E+00
 cg2d: Sum(rhs),rhsMax =  -9.34198851609835E-08  9.27872221865362E+00
 cg2d: Sum(rhs),rhsMax =  -9.33687331894362E-08  9.28381269175841E+00
 cg2d: Sum(rhs),rhsMax =  -9.33183130769066E-08  9.28884990364347E+00
 cg2d: Sum(rhs),rhsMax =  -9.32684542931383E-08  9.29382460831193E+00
(PID.TID 0000.0001) // =======================================================
(PID.TID 0000.0001) // Begin MONITOR dynamic field statistics
(PID.TID 0000.0001) // =======================================================
(PID.TID 0000.0001) %MON time_tsnumber                =               3600117
(PID.TID 0000.0001) %MON time_secondsf                =   1.5552505440000E+11
(PID.TID 0000.0001) %MON dynstat_eta_max              =   8.7674053375540E-01
(PID.TID 0000.0001) %MON dynstat_eta_min              =  -1.5871515670750E+00
(PID.TID 0000.0001) %MON dynstat_eta_mean             =   3.0203617541328E-11
(PID.TID 0000.0001) %MON dynstat_eta_sd               =   6.1002334084381E-01
(PID.TID 0000.0001) %MON dynstat_eta_del2             =   1.2246227475051E-03
(PID.TID 0000.0001) %MON dynstat_uvel_max             =   2.8264875298118E-01
(PID.TID 0000.0001) %MON dynstat_uvel_min             =  -5.9254058906003E-01
(PID.TID 0000.0001) %MON dynstat_uvel_mean            =   1.8004326396079E-03
(PID.TID 0000.0001) %MON dynstat_uvel_sd              =   1.4494961356769E-02
(PID.TID 0000.0001) %MON dynstat_uvel_del2            =   6.5819707230899E-05
(PID.TID 0000.0001) %MON dynstat_vvel_max             =   2.5353586039888E-01
(PID.TID 0000.0001) %MON dynstat_vvel_min             =  -3.0244711849772E-01
(PID.TID 0000.0001) %MON dynstat_vvel_mean            =  -9.1755687961188E-05
(PID.TID 0000.0001) %MON dynstat_vvel_sd              =   8.2567327475402E-03
(PID.TID 0000.0001) %MON dynstat_vvel_del2            =   4.9521568764755E-05
(PID.TID 0000.0001) %MON dynstat_wvel_max             =   6.1854017836949E-05
(PID.TID 0000.0001) %MON dynstat_wvel_min             =  -5.3662954662199E-05
(PID.TID 0000.0001) %MON dynstat_wvel_mean            =   4.0010548463522E-23
(PID.TID 0000.0001) %MON dynstat_wvel_sd              =   2.4169719741836E-06
(PID.TID 0000.0001) %MON dynstat_wvel_del2            =   1.3118003015946E-08
(PID.TID 0000.0001) %MON dynstat_theta_max            =   3.4430804383813E+01
(PID.TID 0000.0001) %MON dynstat_theta_min            =  -2.3572430671071E+00
(PID.TID 0000.0001) %MON dynstat_theta_mean           =   4.0746518378050E+00
(PID.TID 0000.0001) %MON dynstat_theta_sd             =   4.2574346760703E+00
(PID.TID 0000.0001) %MON dynstat_theta_del2           =   2.7429464990255E-03
(PID.TID 0000.0001) %MON dynstat_salt_max             =   3.7534637968861E+01
(PID.TID 0000.0001) %MON dynstat_salt_min             =   3.1318505848314E+01
(PID.TID 0000.0001) %MON dynstat_salt_mean            =   3.5041061703687E+01
(PID.TID 0000.0001) %MON dynstat_salt_sd              =   3.0801056123280E-01
(PID.TID 0000.0001) %MON dynstat_salt_del2            =   3.7720324995058E-04
(PID.TID 0000.0001) %MON dynstat_sst_max              =   3.4430804383813E+01
(PID.TID 0000.0001) %MON dynstat_sst_min              =  -2.2227044817800E+00
(PID.TID 0000.0001) %MON dynstat_sst_mean             =   1.9106295008596E+01
(PID.TID 0000.0001) %MON dynstat_sst_sd               =   9.5199729445948E+00
(PID.TID 0000.0001) %MON dynstat_sst_del2             =   1.9369919573305E-02
(PID.TID 0000.0001) %MON dynstat_sss_max              =   3.7534597043984E+01
(PID.TID 0000.0001) %MON dynstat_sss_min              =   3.1318505848314E+01
(PID.TID 0000.0001) %MON dynstat_sss_mean             =   3.4875642209703E+01
(PID.TID 0000.0001) %MON dynstat_sss_sd               =   9.3821656848954E-01
(PID.TID 0000.0001) %MON dynstat_sss_del2             =   2.7509026582439E-03
(PID.TID 0000.0001) %MON forcing_qnet_max             =   3.6905379740397E+02
(PID.TID 0000.0001) %MON forcing_qnet_min             =  -1.7575071767171E+02
(PID.TID 0000.0001) %MON forcing_qnet_mean            =  -1.3579637476722E+01
(PID.TID 0000.0001) %MON forcing_qnet_sd              =   7.1799290345452E+01
(PID.TID 0000.0001) %MON forcing_qnet_del2            =   2.7481707431788E-01
(PID.TID 0000.0001) %MON forcing_qsw_max              =   0.0000000000000E+00
(PID.TID 0000.0001) %MON forcing_qsw_min              =   0.0000000000000E+00
(PID.TID 0000.0001) %MON forcing_qsw_mean             =   0.0000000000000E+00
(PID.TID 0000.0001) %MON forcing_qsw_sd               =   0.0000000000000E+00
(PID.TID 0000.0001) %MON forcing_qsw_del2             =   0.0000000000000E+00
(PID.TID 0000.0001) %MON forcing_empmr_max            =   6.6865915471226E-05
(PID.TID 0000.0001) %MON forcing_empmr_min            =  -1.5018765964214E-04
(PID.TID 0000.0001) %MON forcing_empmr_mean           =   7.7320599494484E-09
(PID.TID 0000.0001) %MON forcing_empmr_sd             =   2.3858729798697E-05
(PID.TID 0000.0001) %MON forcing_empmr_del2           =   1.1192342175733E-07
(PID.TID 0000.0001) %MON forcing_fu_max               =   3.1568327347438E-01
(PID.TID 0000.0001) %MON forcing_fu_min               =  -2.0853905876478E-01
(PID.TID 0000.0001) %MON forcing_fu_mean              =   2.0318237048226E-02
(PID.TID 0000.0001) %MON forcing_fu_sd                =   9.3671735671059E-02
(PID.TID 0000.0001) %MON forcing_fu_del2              =   2.6726190231918E-04
(PID.TID 0000.0001) %MON forcing_fv_max               =   1.6888125191132E-01
(PID.TID 0000.0001) %MON forcing_fv_min               =  -1.5992739746968E-01
(PID.TID 0000.0001) %MON forcing_fv_mean              =  -7.4274072734040E-03
(PID.TID 0000.0001) %MON forcing_fv_sd                =   4.1278609916616E-02
(PID.TID 0000.0001) %MON forcing_fv_del2              =   1.9005551835927E-04
(PID.TID 0000.0001) %MON trAdv_CFL_u_max              =   8.1896802377871E-02
(PID.TID 0000.0001) %MON trAdv_CFL_v_max              =   4.1802118455137E-02
(PID.TID 0000.0001) %MON trAdv_CFL_w_max              =   5.3688845592280E-02
(PID.TID 0000.0001) %MON advcfl_uvel_max              =   8.1888580284201E-02
(PID.TID 0000.0001) %MON advcfl_vvel_max              =   4.1785332946134E-02
(PID.TID 0000.0001) %MON advcfl_wvel_max              =   4.2951076473824E-02
(PID.TID 0000.0001) %MON advcfl_W_hf_max              =   5.3688845592280E-02
(PID.TID 0000.0001) %MON pe_b_mean                    =   4.7958008957141E-04
(PID.TID 0000.0001) %MON ke_max                       =   1.7507100555886E-01
(PID.TID 0000.0001) %MON ke_mean                      =   1.3033284052723E-04
(PID.TID 0000.0001) %MON ke_vol                       =   1.2572502945428E+18
(PID.TID 0000.0001) %MON vort_r_min                   =  -1.1219877432990E-06
(PID.TID 0000.0001) %MON vort_r_max                   =   1.2904773602733E-06
(PID.TID 0000.0001) %MON vort_a_mean                  =  -2.3966255162188E-05
(PID.TID 0000.0001) %MON vort_a_sd                    =   7.3206886254150E-05
(PID.TID 0000.0001) %MON vort_p_mean                  =  -2.8692533918785E-05
(PID.TID 0000.0001) %MON vort_p_sd                    =   1.1861212844017E-04
(PID.TID 0000.0001) %MON surfExpan_theta_mean         =   1.2147518498707E-07
(PID.TID 0000.0001) %MON surfExpan_salt_mean          =   2.6499267747235E-09
(PID.TID 0000.0001) // =======================================================
(PID.TID 0000.0001) // End MONITOR dynamic field statistics
(PID.TID 0000.0001) // =======================================================
(PID.TID 0000.0001) // =======================================================
(PID.TID 0000.0001) // Begin MONITOR ptracer field statistics
(PID.TID 0000.0001) // =======================================================
(PID.TID 0000.0001) %MON trcstat_ptracer01_max        =   2.2857476050822E+00
(PID.TID 0000.0001) %MON trcstat_ptracer01_min        =  -1.7874138979198E-01
(PID.TID 0000.0001) %MON trcstat_ptracer01_mean       =   9.8370828502971E-01
(PID.TID 0000.0001) %MON trcstat_ptracer01_sd         =   1.1168672967451E+00
(PID.TID 0000.0001) %MON trcstat_ptracer01_del2       =   2.1993405603656E-04
(PID.TID 0000.0001) %MON trcstat_ptracer02_max        =   2.3960446245230E+00
(PID.TID 0000.0001) %MON trcstat_ptracer02_min        =  -1.8725492807146E-01
(PID.TID 0000.0001) %MON trcstat_ptracer02_mean       =   1.0312175710353E+00
(PID.TID 0000.0001) %MON trcstat_ptracer02_sd         =   1.1706265746584E+00
(PID.TID 0000.0001) %MON trcstat_ptracer02_del2       =   2.2725161852425E-04
(PID.TID 0000.0001) %MON trcstat_ptracer03_max        =   2.4306960918460E-03
(PID.TID 0000.0001) %MON trcstat_ptracer03_min        =  -1.7589285245776E-04
(PID.TID 0000.0001) %MON trcstat_ptracer03_mean       =   9.6581616217902E-04
(PID.TID 0000.0001) %MON trcstat_ptracer03_sd         =   1.1037547995573E-03
(PID.TID 0000.0001) %MON trcstat_ptracer03_del2       =   3.6224789517239E-07
(PID.TID 0000.0001) %MON trcstat_ptracer04_max        =   2.0124865455545E-04
(PID.TID 0000.0001) %MON trcstat_ptracer04_min        =  -1.7417916936787E-08
(PID.TID 0000.0001) %MON trcstat_ptracer04_mean       =   1.9452933828985E-07
(PID.TID 0000.0001) %MON trcstat_ptracer04_sd         =   3.4061988269989E-06
(PID.TID 0000.0001) %MON trcstat_ptracer04_del2       =   1.2580056925466E-08
(PID.TID 0000.0001) %MON trcstat_ptracer05_max        =   3.7977058723660E-01
(PID.TID 0000.0001) %MON trcstat_ptracer05_min        =  -1.5921545614182E-02
(PID.TID 0000.0001) %MON trcstat_ptracer05_mean       =   8.2810527566942E-02
(PID.TID 0000.0001) %MON trcstat_ptracer05_sd         =   9.4815530608020E-02
(PID.TID 0000.0001) %MON trcstat_ptracer05_del2       =   4.6669056418853E-05
(PID.TID 0000.0001) %MON trcstat_ptracer06_max        =   2.1757283312495E-06
(PID.TID 0000.0001) %MON trcstat_ptracer06_min        =  -4.4334893487798E-12
(PID.TID 0000.0001) %MON trcstat_ptracer06_mean       =   2.3057188778431E-10
(PID.TID 0000.0001) %MON trcstat_ptracer06_sd         =   7.2855298256045E-09
(PID.TID 0000.0001) %MON trcstat_ptracer06_del2       =   4.6578796950294E-11
(PID.TID 0000.0001) %MON trcstat_ptracer07_max        =   3.7977058723660E-01
(PID.TID 0000.0001) %MON trcstat_ptracer07_min        =  -4.9154130975746E-03
(PID.TID 0000.0001) %MON trcstat_ptracer07_mean       =   4.0991327864783E-03
(PID.TID 0000.0001) %MON trcstat_ptracer07_sd         =   2.7805387594655E-02
(PID.TID 0000.0001) %MON trcstat_ptracer07_del2       =   9.2896816609981E-05
(PID.TID 0000.0001) %MON trcstat_ptracer08_max        =   2.3808373436110E+00
(PID.TID 0000.0001) %MON trcstat_ptracer08_min        =  -4.3862385367815E-02
(PID.TID 0000.0001) %MON trcstat_ptracer08_mean       =   3.8659488194597E-02
(PID.TID 0000.0001) %MON trcstat_ptracer08_sd         =   2.6016230035768E-01
(PID.TID 0000.0001) %MON trcstat_ptracer08_del2       =   7.9495557200046E-04
(PID.TID 0000.0001) %MON trcstat_ptracer09_max        =   2.2585494109217E+00
(PID.TID 0000.0001) %MON trcstat_ptracer09_min        =  -4.1233291949161E-02
(PID.TID 0000.0001) %MON trcstat_ptracer09_mean       =   3.5297053683066E-02
(PID.TID 0000.0001) %MON trcstat_ptracer09_sd         =   2.3739035466256E-01
(PID.TID 0000.0001) %MON trcstat_ptracer09_del2       =   7.3650967436153E-04
(PID.TID 0000.0001) // =======================================================
(PID.TID 0000.0001) // End MONITOR ptracer field statistics
(PID.TID 0000.0001) // =======================================================
 cg2d: Sum(rhs),rhsMax =  -9.32194410552256E-08  9.29872876125425E+00
 cg2d: Sum(rhs),rhsMax =  -9.31711383600486E-08  9.30355578941157E+00
 cg2d: Sum(rhs),rhsMax =  -9.31240364820951E-08  9.30830071441787E+00
 cg2d: Sum(rhs),rhsMax =  -9.30773893514925E-08  9.31296016039586E+00
 cg2d: Sum(rhs),rhsMax =  -9.30318719838397E-08  9.31753230345820E+00
 cg2d: Sum(rhs),rhsMax =  -9.29872783217434E-08  9.32201677457960E+00
 cg2d: Sum(rhs),rhsMax =  -9.29437931063148E-08  9.32641453687162E+00
 cg2d: Sum(rhs),rhsMax =  -9.29007910599466E-08  9.33072777407330E+00
 cg2d: Sum(rhs),rhsMax =  -9.28590253579387E-08  9.33495977832897E+00
 cg2d: Sum(rhs),rhsMax =  -9.28177001924269E-08  9.33911483571782E+00
 cg2d: Sum(rhs),rhsMax =  -9.27770358316593E-08  9.34319809772528E+00
 cg2d: Sum(rhs),rhsMax =  -9.27373591252945E-08  9.34721542637213E+00
 cg2d: Sum(rhs),rhsMax =  -9.26982295368362E-08  9.35117321728378E+00
 cg2d: Sum(rhs),rhsMax =  -9.26594978523099E-08  9.35507820898651E+00
 cg2d: Sum(rhs),rhsMax =  -9.26212777585533E-08  9.35893728101038E+00
 cg2d: Sum(rhs),rhsMax =  -9.25836900478316E-08  9.36275724876052E+00
 cg2d: Sum(rhs),rhsMax =  -9.25467347201447E-08  9.36654466497940E+00
 cg2d: Sum(rhs),rhsMax =  -9.25093388559617E-08  9.37030563739009E+00
 cg2d: Sum(rhs),rhsMax =  -9.24723693174201E-08  9.37404566529748E+00
 cg2d: Sum(rhs),rhsMax =  -9.24358261045199E-08  9.37776950669782E+00
 cg2d: Sum(rhs),rhsMax =  -9.23998015878169E-08  9.38148107939576E+00
 cg2d: Sum(rhs),rhsMax =  -9.23633649563271E-08  9.38518340080342E+00
 cg2d: Sum(rhs),rhsMax =  -9.23271628039402E-08  9.38887856431341E+00
 cg2d: Sum(rhs),rhsMax =  -9.22907545941598E-08  9.39256775253961E+00
 cg2d: Sum(rhs),rhsMax =  -9.22549361348501E-08  9.39625127829926E+00
 cg2d: Sum(rhs),rhsMax =  -9.22186487173349E-08  9.39992865313115E+00
 cg2d: Sum(rhs),rhsMax =  -9.21831713185384E-08  9.40359867110262E+00
 cg2d: Sum(rhs),rhsMax =  -9.21473457538013E-08  9.40725949891390E+00
 cg2d: Sum(rhs),rhsMax =  -9.21119038821416E-08  9.41090875978471E+00
 cg2d: Sum(rhs),rhsMax =  -9.20763412182168E-08  9.41454361858659E+00
 cg2d: Sum(rhs),rhsMax =  -9.20410343496769E-08  9.41816086827301E+00
 cg2d: Sum(rhs),rhsMax =  -9.20060685416502E-08  9.42175701532902E+00
 cg2d: Sum(rhs),rhsMax =  -9.19711879987517E-08  9.42532836100955E+00
 EXTERNAL_FIELDS_LOAD, it=   3600150 : Reading new data, i0,i1=    3    4 (prev=    2    3 )
 DIC_FIELDS_LOAD, it=   3600150 : Reading new data, i0,i1=    3    4 (prev=    2    3 )
 cg2d: Sum(rhs),rhsMax =  -9.19367622032041E-08  9.42887108055882E+00
 cg2d: Sum(rhs),rhsMax =  -9.19030327395376E-08  9.43235832256638E+00
 cg2d: Sum(rhs),rhsMax =  -9.18696727580937E-08  9.43577294710938E+00
 cg2d: Sum(rhs),rhsMax =  -9.18375349101552E-08  9.43909901719340E+00
 cg2d: Sum(rhs),rhsMax =  -9.18056457521743E-08  9.44232226351574E+00
 cg2d: Sum(rhs),rhsMax =  -9.17754618967592E-08  9.44543045713848E+00
 cg2d: Sum(rhs),rhsMax =  -9.17468696570722E-08  9.44841368652191E+00
 cg2d: Sum(rhs),rhsMax =  -9.17188671678559E-08  9.45126453300903E+00
 cg2d: Sum(rhs),rhsMax =  -9.16929749905648E-08  9.45397814472091E+00
 cg2d: Sum(rhs),rhsMax =  -9.16680278351123E-08  9.45655223330268E+00
 cg2d: Sum(rhs),rhsMax =  -9.16445941356869E-08  9.45898700078271E+00
 cg2d: Sum(rhs),rhsMax =  -9.16223754643397E-08  9.46128500172268E+00
 cg2d: Sum(rhs),rhsMax =  -9.16011231311131E-08  9.46345095767279E+00
 cg2d: Sum(rhs),rhsMax =  -9.15811568802383E-08  9.46549153513779E+00
 cg2d: Sum(rhs),rhsMax =  -9.15625619768434E-08  9.46741508859273E+00
 cg2d: Sum(rhs),rhsMax =  -9.15451252581079E-08  9.46923137659912E+00
 cg2d: Sum(rhs),rhsMax =  -9.15285980340741E-08  9.47095124324780E+00
 cg2d: Sum(rhs),rhsMax =  -9.15126108225195E-08  9.47258633929544E+00
 cg2d: Sum(rhs),rhsMax =  -9.14974762622478E-08  9.47414881667898E+00
 cg2d: Sum(rhs),rhsMax =  -9.14831588261222E-08  9.47565102854520E+00
 cg2d: Sum(rhs),rhsMax =  -9.14691185016636E-08  9.47710524161440E+00
 cg2d: Sum(rhs),rhsMax =  -9.14552913400257E-08  9.47852337330871E+00
 cg2d: Sum(rhs),rhsMax =  -9.14417910280463E-08  9.47991675839448E+00
 cg2d: Sum(rhs),rhsMax =  -9.14288023068366E-08  9.48129594936036E+00
 cg2d: Sum(rhs),rhsMax =  -9.14153162057119E-08  9.48267055268677E+00
 cg2d: Sum(rhs),rhsMax =  -9.14016951014673E-08  9.48404910672501E+00
 cg2d: Sum(rhs),rhsMax =  -9.13883866360266E-08  9.48543898881096E+00
(PID.TID 0000.0001) // =======================================================
(PID.TID 0000.0001) // Begin MONITOR dynamic field statistics
(PID.TID 0000.0001) // =======================================================
(PID.TID 0000.0001) %MON time_tsnumber                =               3600177
(PID.TID 0000.0001) %MON time_secondsf                =   1.5552764640000E+11
(PID.TID 0000.0001) %MON dynstat_eta_max              =   8.8300792150335E-01
(PID.TID 0000.0001) %MON dynstat_eta_min              =  -1.5898976427807E+00
(PID.TID 0000.0001) %MON dynstat_eta_mean             =   3.0204946695540E-11
(PID.TID 0000.0001) %MON dynstat_eta_sd               =   6.1032259809498E-01
(PID.TID 0000.0001) %MON dynstat_eta_del2             =   1.2277841104510E-03
(PID.TID 0000.0001) %MON dynstat_uvel_max             =   2.5340367731071E-01
(PID.TID 0000.0001) %MON dynstat_uvel_min             =  -5.9395896428432E-01
(PID.TID 0000.0001) %MON dynstat_uvel_mean            =   1.7439972367713E-03
(PID.TID 0000.0001) %MON dynstat_uvel_sd              =   1.4460201897052E-02
(PID.TID 0000.0001) %MON dynstat_uvel_del2            =   6.4478871873906E-05
(PID.TID 0000.0001) %MON dynstat_vvel_max             =   2.6145996895548E-01
(PID.TID 0000.0001) %MON dynstat_vvel_min             =  -2.8102374000964E-01
(PID.TID 0000.0001) %MON dynstat_vvel_mean            =   9.1523722861541E-06
(PID.TID 0000.0001) %MON dynstat_vvel_sd              =   8.1848241859649E-03
(PID.TID 0000.0001) %MON dynstat_vvel_del2            =   4.8690845724501E-05
(PID.TID 0000.0001) %MON dynstat_wvel_max             =   6.2217785359649E-05
(PID.TID 0000.0001) %MON dynstat_wvel_min             =  -5.3979720489819E-05
(PID.TID 0000.0001) %MON dynstat_wvel_mean            =  -9.8487503910208E-23
(PID.TID 0000.0001) %MON dynstat_wvel_sd              =   2.3990433205095E-06
(PID.TID 0000.0001) %MON dynstat_wvel_del2            =   1.3309566109858E-08
(PID.TID 0000.0001) %MON dynstat_theta_max            =   3.4451708075511E+01
(PID.TID 0000.0001) %MON dynstat_theta_min            =  -2.3553294417959E+00
(PID.TID 0000.0001) %MON dynstat_theta_mean           =   4.0757896353909E+00
(PID.TID 0000.0001) %MON dynstat_theta_sd             =   4.2634129388577E+00
(PID.TID 0000.0001) %MON dynstat_theta_del2           =   2.6700270390717E-03
(PID.TID 0000.0001) %MON dynstat_salt_max             =   3.7554055253812E+01
(PID.TID 0000.0001) %MON dynstat_salt_min             =   3.1278644990118E+01
(PID.TID 0000.0001) %MON dynstat_salt_mean            =   3.5041072250430E+01
(PID.TID 0000.0001) %MON dynstat_salt_sd              =   3.0802626693850E-01
(PID.TID 0000.0001) %MON dynstat_salt_del2            =   3.7550959226858E-04
(PID.TID 0000.0001) %MON dynstat_sst_max              =   3.4451708075511E+01
(PID.TID 0000.0001) %MON dynstat_sst_min              =  -2.2654502618064E+00
(PID.TID 0000.0001) %MON dynstat_sst_mean             =   1.8832854429124E+01
(PID.TID 0000.0001) %MON dynstat_sst_sd               =   9.7969364199677E+00
(PID.TID 0000.0001) %MON dynstat_sst_del2             =   1.8183781804541E-02
(PID.TID 0000.0001) %MON dynstat_sss_max              =   3.7553943646523E+01
(PID.TID 0000.0001) %MON dynstat_sss_min              =   3.1278644990118E+01
(PID.TID 0000.0001) %MON dynstat_sss_mean             =   3.4880219812310E+01
(PID.TID 0000.0001) %MON dynstat_sss_sd               =   9.4022697782833E-01
(PID.TID 0000.0001) %MON dynstat_sss_del2             =   2.7599479804480E-03
(PID.TID 0000.0001) %MON forcing_qnet_max             =   3.9073108418783E+02
(PID.TID 0000.0001) %MON forcing_qnet_min             =  -1.7711328023275E+02
(PID.TID 0000.0001) %MON forcing_qnet_mean            =  -2.4896204157900E+00
(PID.TID 0000.0001) %MON forcing_qnet_sd              =   5.4221970815213E+01
(PID.TID 0000.0001) %MON forcing_qnet_del2            =   2.7123718564219E-01
(PID.TID 0000.0001) %MON forcing_qsw_max              =   0.0000000000000E+00
(PID.TID 0000.0001) %MON forcing_qsw_min              =   0.0000000000000E+00
(PID.TID 0000.0001) %MON forcing_qsw_mean             =   0.0000000000000E+00
(PID.TID 0000.0001) %MON forcing_qsw_sd               =   0.0000000000000E+00
(PID.TID 0000.0001) %MON forcing_qsw_del2             =   0.0000000000000E+00
(PID.TID 0000.0001) %MON forcing_empmr_max            =   6.6865915471226E-05
(PID.TID 0000.0001) %MON forcing_empmr_min            =  -1.5018765964214E-04
(PID.TID 0000.0001) %MON forcing_empmr_mean           =   7.7320599494484E-09
(PID.TID 0000.0001) %MON forcing_empmr_sd             =   2.3858729798697E-05
(PID.TID 0000.0001) %MON forcing_empmr_del2           =   1.1192342175733E-07
(PID.TID 0000.0001) %MON forcing_fu_max               =   3.2713221410910E-01
(PID.TID 0000.0001) %MON forcing_fu_min               =  -2.7707424064477E-01
(PID.TID 0000.0001) %MON forcing_fu_mean              =   2.0703827988263E-02
(PID.TID 0000.0001) %MON forcing_fu_sd                =   9.7594304422366E-02
(PID.TID 0000.0001) %MON forcing_fu_del2              =   2.8382202824923E-04
(PID.TID 0000.0001) %MON forcing_fv_max               =   1.7630788336198E-01
(PID.TID 0000.0001) %MON forcing_fv_min               =  -1.4871564755837E-01
(PID.TID 0000.0001) %MON forcing_fv_mean              =  -7.1722015439635E-03
(PID.TID 0000.0001) %MON forcing_fv_sd                =   3.8267515064410E-02
(PID.TID 0000.0001) %MON forcing_fv_del2              =   1.7610610678980E-04
(PID.TID 0000.0001) %MON trAdv_CFL_u_max              =   8.2092840248669E-02
(PID.TID 0000.0001) %MON trAdv_CFL_v_max              =   3.8794343566395E-02
(PID.TID 0000.0001) %MON trAdv_CFL_w_max              =   5.2059214023459E-02
(PID.TID 0000.0001) %MON advcfl_uvel_max              =   8.2084598473623E-02
(PID.TID 0000.0001) %MON advcfl_vvel_max              =   3.8825532874631E-02
(PID.TID 0000.0001) %MON advcfl_wvel_max              =   4.1647371218767E-02
(PID.TID 0000.0001) %MON advcfl_W_hf_max              =   5.2059214023459E-02
(PID.TID 0000.0001) %MON pe_b_mean                    =   4.8005073720816E-04
(PID.TID 0000.0001) %MON ke_max                       =   1.7824614536034E-01
(PID.TID 0000.0001) %MON ke_mean                      =   1.2922612960012E-04
(PID.TID 0000.0001) %MON ke_vol                       =   1.2572502945428E+18
(PID.TID 0000.0001) %MON vort_r_min                   =  -1.0139762667585E-06
(PID.TID 0000.0001) %MON vort_r_max                   =   1.2674432529650E-06
(PID.TID 0000.0001) %MON vort_a_mean                  =  -2.3966255162188E-05
(PID.TID 0000.0001) %MON vort_a_sd                    =   7.3206868433090E-05
(PID.TID 0000.0001) %MON vort_p_mean                  =  -2.8692533918785E-05
(PID.TID 0000.0001) %MON vort_p_sd                    =   1.1861211890424E-04
(PID.TID 0000.0001) %MON surfExpan_theta_mean         =   9.1748141119988E-08
(PID.TID 0000.0001) %MON surfExpan_salt_mean          =   6.9588457906693E-09
(PID.TID 0000.0001) // =======================================================
(PID.TID 0000.0001) // End MONITOR dynamic field statistics
(PID.TID 0000.0001) // =======================================================
(PID.TID 0000.0001) // =======================================================
(PID.TID 0000.0001) // Begin MONITOR ptracer field statistics
(PID.TID 0000.0001) // =======================================================
(PID.TID 0000.0001) %MON trcstat_ptracer01_max        =   2.2935045215732E+00
(PID.TID 0000.0001) %MON trcstat_ptracer01_min        =  -4.5059749587121E-01
(PID.TID 0000.0001) %MON trcstat_ptracer01_mean       =   9.8349009281701E-01
(PID.TID 0000.0001) %MON trcstat_ptracer01_sd         =   1.1136287588321E+00
(PID.TID 0000.0001) %MON trcstat_ptracer01_del2       =   2.2400531940580E-04
(PID.TID 0000.0001) %MON trcstat_ptracer02_max        =   2.3977466713903E+00
(PID.TID 0000.0001) %MON trcstat_ptracer02_min        =  -4.7215759571858E-01
(PID.TID 0000.0001) %MON trcstat_ptracer02_mean       =   1.0312204351756E+00
(PID.TID 0000.0001) %MON trcstat_ptracer02_sd         =   1.1674784329923E+00
(PID.TID 0000.0001) %MON trcstat_ptracer02_del2       =   2.3180620641737E-04
(PID.TID 0000.0001) %MON trcstat_ptracer03_max        =   2.4403947283198E-03
(PID.TID 0000.0001) %MON trcstat_ptracer03_min        =  -4.4329160488273E-04
(PID.TID 0000.0001) %MON trcstat_ptracer03_mean       =   9.6564734145231E-04
(PID.TID 0000.0001) %MON trcstat_ptracer03_sd         =   1.1000338984915E-03
(PID.TID 0000.0001) %MON trcstat_ptracer03_del2       =   3.5722176743501E-07
(PID.TID 0000.0001) %MON trcstat_ptracer04_max        =   3.0144972747613E-04
(PID.TID 0000.0001) %MON trcstat_ptracer04_min        =  -3.7648477441064E-08
(PID.TID 0000.0001) %MON trcstat_ptracer04_mean       =   3.7000618097786E-07
(PID.TID 0000.0001) %MON trcstat_ptracer04_sd         =   5.9294974300599E-06
(PID.TID 0000.0001) %MON trcstat_ptracer04_del2       =   2.0390452078114E-08
(PID.TID 0000.0001) %MON trcstat_ptracer05_max        =   3.8044204513184E-01
(PID.TID 0000.0001) %MON trcstat_ptracer05_min        =  -4.2849861971230E-02
(PID.TID 0000.0001) %MON trcstat_ptracer05_mean       =   8.3112204561107E-02
(PID.TID 0000.0001) %MON trcstat_ptracer05_sd         =   9.4905678802330E-02
(PID.TID 0000.0001) %MON trcstat_ptracer05_del2       =   4.7977363800156E-05
(PID.TID 0000.0001) %MON trcstat_ptracer06_max        =   3.1014917955769E-06
(PID.TID 0000.0001) %MON trcstat_ptracer06_min        =  -2.3565691732549E-11
(PID.TID 0000.0001) %MON trcstat_ptracer06_mean       =   3.2185017960665E-10
(PID.TID 0000.0001) %MON trcstat_ptracer06_sd         =   1.0213676592847E-08
(PID.TID 0000.0001) %MON trcstat_ptracer06_del2       =   6.4320657746017E-11
(PID.TID 0000.0001) %MON trcstat_ptracer07_max        =   3.8044204513184E-01
(PID.TID 0000.0001) %MON trcstat_ptracer07_min        =  -1.1681843106652E-02
(PID.TID 0000.0001) %MON trcstat_ptracer07_mean       =   4.8754354620916E-03
(PID.TID 0000.0001) %MON trcstat_ptracer07_sd         =   3.0455928398470E-02
(PID.TID 0000.0001) %MON trcstat_ptracer07_del2       =   9.2154669163623E-05
(PID.TID 0000.0001) %MON trcstat_ptracer08_max        =   2.3812950452767E+00
(PID.TID 0000.0001) %MON trcstat_ptracer08_min        =  -9.7058402802129E-02
(PID.TID 0000.0001) %MON trcstat_ptracer08_mean       =   4.5279243084566E-02
(PID.TID 0000.0001) %MON trcstat_ptracer08_sd         =   2.8021383177883E-01
(PID.TID 0000.0001) %MON trcstat_ptracer08_del2       =   7.7388754120493E-04
(PID.TID 0000.0001) %MON trcstat_ptracer09_max        =   2.2619485640098E+00
(PID.TID 0000.0001) %MON trcstat_ptracer09_min        =  -9.2171493474059E-02
(PID.TID 0000.0001) %MON trcstat_ptracer09_mean       =   4.1359532252717E-02
(PID.TID 0000.0001) %MON trcstat_ptracer09_sd         =   2.5576442894131E-01
(PID.TID 0000.0001) %MON trcstat_ptracer09_del2       =   7.1833538789065E-04
(PID.TID 0000.0001) // =======================================================
(PID.TID 0000.0001) // End MONITOR ptracer field statistics
(PID.TID 0000.0001) // =======================================================
 cg2d: Sum(rhs),rhsMax =  -9.13749147457565E-08  9.48684634838855E+00
 cg2d: Sum(rhs),rhsMax =  -9.13611231112554E-08  9.48827608016959E+00
 cg2d: Sum(rhs),rhsMax =  -9.13465854068818E-08  9.48973182637241E+00
 cg2d: Sum(rhs),rhsMax =  -9.13324456064402E-08  9.49121598932757E+00
 cg2d: Sum(rhs),rhsMax =  -9.13176805283911E-08  9.49272976482376E+00
 cg2d: Sum(rhs),rhsMax =  -9.13029793991882E-08  9.49427318407705E+00
 cg2d: Sum(rhs),rhsMax =  -9.12876600978052E-08  9.49584517202971E+00
 cg2d: Sum(rhs),rhsMax =  -9.12722768475760E-08  9.49744362566448E+00
 cg2d: Sum(rhs),rhsMax =  -9.12563962174318E-08  9.49906550905340E+00
 cg2d: Sum(rhs),rhsMax =  -9.12406292741252E-08  9.50070696299551E+00
 cg2d: Sum(rhs),rhsMax =  -9.12245567974423E-08  9.50236342680402E+00
 cg2d: Sum(rhs),rhsMax =  -9.12086122184519E-08  9.50402976802920E+00
 cg2d: Sum(rhs),rhsMax =  -9.11920636781360E-08  9.50570042893596E+00
 cg2d: Sum(rhs),rhsMax =  -9.11760835720088E-08  9.50736956748404E+00
 cg2d: Sum(rhs),rhsMax =  -9.11599897790438E-08  9.50903122489705E+00
 cg2d: Sum(rhs),rhsMax =  -9.11439812512072E-08  9.51067944299842E+00
 cg2d: Sum(rhs),rhsMax =  -9.11286619498242E-08  9.51230836255520E+00
 cg2d: Sum(rhs),rhsMax =  -9.11128452685261E-08  9.51391232343393E+00
 cg2d: Sum(rhs),rhsMax =  -9.10978172896648E-08  9.51548598638282E+00
 cg2d: Sum(rhs),rhsMax =  -9.10825903588375E-08  9.51702443978652E+00
 cg2d: Sum(rhs),rhsMax =  -9.10679744947629E-08  9.51852327194360E+00
 cg2d: Sum(rhs),rhsMax =  -9.10538062726118E-08  9.51997861079381E+00
 cg2d: Sum(rhs),rhsMax =  -9.10403272769145E-08  9.52138713289450E+00
 cg2d: Sum(rhs),rhsMax =  -9.10271680254482E-08  9.52274605554116E+00
 cg2d: Sum(rhs),rhsMax =  -9.10143498344951E-08  9.52405313717331E+00
 cg2d: Sum(rhs),rhsMax =  -9.10022919242692E-08  9.52530666028232E+00
 cg2d: Sum(rhs),rhsMax =  -9.09905324419924E-08  9.52650541109617E+00
 cg2d: Sum(rhs),rhsMax =  -9.09794692915966E-08  9.52764864727963E+00
 cg2d: Sum(rhs),rhsMax =  -9.09689816808168E-08  9.52873605079492E+00
 cg2d: Sum(rhs),rhsMax =  -9.09588422359775E-08  9.52976767849440E+00
 cg2d: Sum(rhs),rhsMax =  -9.09493280687457E-08  9.53074391639987E+00
 cg2d: Sum(rhs),rhsMax =  -9.09404391791213E-08  9.53166530103624E+00
 cg2d: Sum(rhs),rhsMax =  -9.09316284491979E-08  9.53253252588939E+00
 EXTERNAL_FIELDS_LOAD, it=   3600210 : Reading new data, i0,i1=    4    5 (prev=    3    4 )
 DIC_FIELDS_LOAD, it=   3600210 : Reading new data, i0,i1=    4    5 (prev=    3    4 )
 cg2d: Sum(rhs),rhsMax =  -9.09236845814121E-08  9.53334634295211E+00
 cg2d: Sum(rhs),rhsMax =  -9.09162238826866E-08  9.53412016630968E+00
 cg2d: Sum(rhs),rhsMax =  -9.09088555545168E-08  9.53486144691540E+00
 cg2d: Sum(rhs),rhsMax =  -9.09020556605356E-08  9.53557668814411E+00
 cg2d: Sum(rhs),rhsMax =  -9.08950781308704E-08  9.53626990934916E+00
 cg2d: Sum(rhs),rhsMax =  -9.08885269268467E-08  9.53694479201801E+00
 cg2d: Sum(rhs),rhsMax =  -9.08819686173956E-08  9.53760402798875E+00
 cg2d: Sum(rhs),rhsMax =  -9.08758792661502E-08  9.53824943192211E+00
 cg2d: Sum(rhs),rhsMax =  -9.08692001644340E-08  9.53888215688552E+00
 cg2d: Sum(rhs),rhsMax =  -9.08633310814366E-08  9.53950304357000E+00
 cg2d: Sum(rhs),rhsMax =  -9.08575117364308E-08  9.54011304176576E+00
 cg2d: Sum(rhs),rhsMax =  -9.08516142317239E-08  9.54071301635899E+00
 cg2d: Sum(rhs),rhsMax =  -9.08458943627011E-08  9.54130322912294E+00
 cg2d: Sum(rhs),rhsMax =  -9.08400252797037E-08  9.54188272003942E+00
 cg2d: Sum(rhs),rhsMax =  -9.08349306882883E-08  9.54244934290944E+00
 cg2d: Sum(rhs),rhsMax =  -9.08295305634965E-08  9.54299999628384E+00
 cg2d: Sum(rhs),rhsMax =  -9.08241872821236E-08  9.54353092308816E+00
 cg2d: Sum(rhs),rhsMax =  -9.08189861092978E-08  9.54403796863502E+00
 cg2d: Sum(rhs),rhsMax =  -9.08142894218145E-08  9.54451678452915E+00
 cg2d: Sum(rhs),rhsMax =  -9.08097916862971E-08  9.54496303374895E+00
 cg2d: Sum(rhs),rhsMax =  -9.08056705384297E-08  9.54537256688658E+00
 cg2d: Sum(rhs),rhsMax =  -9.08016417611179E-08  9.54574155534994E+00
 cg2d: Sum(rhs),rhsMax =  -9.07979256226099E-08  9.54606657177462E+00
 cg2d: Sum(rhs),rhsMax =  -9.07952681927782E-08  9.54634467959792E+00
 cg2d: Sum(rhs),rhsMax =  -9.07924189164078E-08  9.54657345840157E+00
 cg2d: Sum(rhs),rhsMax =  -9.07902162339269E-08  9.54675102924543E+00
 cg2d: Sum(rhs),rhsMax =  -9.07886743561903E-08  9.54687605379506E+00
 cg2d: Sum(rhs),rhsMax =  -9.07877648614885E-08  9.54694771403842E+00
(PID.TID 0000.0001) // =======================================================
(PID.TID 0000.0001) // Begin MONITOR dynamic field statistics
(PID.TID 0000.0001) // =======================================================
(PID.TID 0000.0001) %MON time_tsnumber                =               3600238
(PID.TID 0000.0001) %MON time_secondsf                =   1.5553028160000E+11
(PID.TID 0000.0001) %MON dynstat_eta_max              =   8.7742095870219E-01
(PID.TID 0000.0001) %MON dynstat_eta_min              =  -1.5935996001380E+00
(PID.TID 0000.0001) %MON dynstat_eta_mean             =   3.0200772394500E-11
(PID.TID 0000.0001) %MON dynstat_eta_sd               =   6.1126135213138E-01
(PID.TID 0000.0001) %MON dynstat_eta_del2             =   1.2205410047889E-03
(PID.TID 0000.0001) %MON dynstat_uvel_max             =   2.5661301380730E-01
(PID.TID 0000.0001) %MON dynstat_uvel_min             =  -5.5886039217565E-01
(PID.TID 0000.0001) %MON dynstat_uvel_mean            =   1.7105513991894E-03
(PID.TID 0000.0001) %MON dynstat_uvel_sd              =   1.4378888867360E-02
(PID.TID 0000.0001) %MON dynstat_uvel_del2            =   6.1018211162801E-05
(PID.TID 0000.0001) %MON dynstat_vvel_max             =   2.6753484699658E-01
(PID.TID 0000.0001) %MON dynstat_vvel_min             =  -2.0367529750937E-01
(PID.TID 0000.0001) %MON dynstat_vvel_mean            =   9.6683346910631E-05
(PID.TID 0000.0001) %MON dynstat_vvel_sd              =   8.1756884172075E-03
(PID.TID 0000.0001) %MON dynstat_vvel_del2            =   4.6704123602196E-05
(PID.TID 0000.0001) %MON dynstat_wvel_max             =   6.1868998217408E-05
(PID.TID 0000.0001) %MON dynstat_wvel_min             =  -5.7015609728882E-05
(PID.TID 0000.0001) %MON dynstat_wvel_mean            =   1.2310937988776E-23
(PID.TID 0000.0001) %MON dynstat_wvel_sd              =   2.4177012386755E-06
(PID.TID 0000.0001) %MON dynstat_wvel_del2            =   1.3140594715666E-08
(PID.TID 0000.0001) %MON dynstat_theta_max            =   3.5020820508442E+01
(PID.TID 0000.0001) %MON dynstat_theta_min            =  -2.3551026092445E+00
(PID.TID 0000.0001) %MON dynstat_theta_mean           =   4.0750028251879E+00
(PID.TID 0000.0001) %MON dynstat_theta_sd             =   4.2630026080023E+00
(PID.TID 0000.0001) %MON dynstat_theta_del2           =   2.5770832022236E-03
(PID.TID 0000.0001) %MON dynstat_salt_max             =   3.7575335167430E+01
(PID.TID 0000.0001) %MON dynstat_salt_min             =   3.1241323942212E+01
(PID.TID 0000.0001) %MON dynstat_salt_mean            =   3.5041091264143E+01
(PID.TID 0000.0001) %MON dynstat_salt_sd              =   3.0797304002573E-01
(PID.TID 0000.0001) %MON dynstat_salt_del2            =   3.6899547896934E-04
(PID.TID 0000.0001) %MON dynstat_sst_max              =   3.5020820508442E+01
(PID.TID 0000.0001) %MON dynstat_sst_min              =  -2.1843774985034E+00
(PID.TID 0000.0001) %MON dynstat_sst_mean             =   1.8484151534038E+01
(PID.TID 0000.0001) %MON dynstat_sst_sd               =   9.8964149269878E+00
(PID.TID 0000.0001) %MON dynstat_sst_del2             =   1.6711669919756E-02
(PID.TID 0000.0001) %MON dynstat_sss_max              =   3.7575335167430E+01
(PID.TID 0000.0001) %MON dynstat_sss_min              =   3.1241323942212E+01
(PID.TID 0000.0001) %MON dynstat_sss_mean             =   3.4884489992111E+01
(PID.TID 0000.0001) %MON dynstat_sss_sd               =   9.3923215087701E-01
(PID.TID 0000.0001) %MON dynstat_sss_del2             =   2.6474693162420E-03
(PID.TID 0000.0001) %MON forcing_qnet_max             =   2.9747935638428E+02
(PID.TID 0000.0001) %MON forcing_qnet_min             =  -1.7985660324097E+02
(PID.TID 0000.0001) %MON forcing_qnet_mean            =   1.1779765552524E+01
(PID.TID 0000.0001) %MON forcing_qnet_sd              =   6.7839308640631E+01
(PID.TID 0000.0001) %MON forcing_qnet_del2            =   2.6414964964360E-01
(PID.TID 0000.0001) %MON forcing_qsw_max              =   0.0000000000000E+00
(PID.TID 0000.0001) %MON forcing_qsw_min              =   0.0000000000000E+00
(PID.TID 0000.0001) %MON forcing_qsw_mean             =   0.0000000000000E+00
(PID.TID 0000.0001) %MON forcing_qsw_sd               =   0.0000000000000E+00
(PID.TID 0000.0001) %MON forcing_qsw_del2             =   0.0000000000000E+00
(PID.TID 0000.0001) %MON forcing_empmr_max            =   6.6865915471226E-05
(PID.TID 0000.0001) %MON forcing_empmr_min            =  -1.5018765964214E-04
(PID.TID 0000.0001) %MON forcing_empmr_mean           =   7.7320599494484E-09
(PID.TID 0000.0001) %MON forcing_empmr_sd             =   2.3858729798697E-05
(PID.TID 0000.0001) %MON forcing_empmr_del2           =   1.1192342175733E-07
(PID.TID 0000.0001) %MON forcing_fu_max               =   3.3278316408396E-01
(PID.TID 0000.0001) %MON forcing_fu_min               =  -3.3377709984779E-01
(PID.TID 0000.0001) %MON forcing_fu_mean              =   1.9960739198986E-02
(PID.TID 0000.0001) %MON forcing_fu_sd                =   9.6470035871875E-02
(PID.TID 0000.0001) %MON forcing_fu_del2              =   2.8865020093185E-04
(PID.TID 0000.0001) %MON forcing_fv_max               =   2.0798458829522E-01
(PID.TID 0000.0001) %MON forcing_fv_min               =  -1.4474353492260E-01
(PID.TID 0000.0001) %MON forcing_fv_mean              =  -4.9319072903786E-03
(PID.TID 0000.0001) %MON forcing_fv_sd                =   3.8350020027984E-02
(PID.TID 0000.0001) %MON forcing_fv_del2              =   1.6845884022205E-04
(PID.TID 0000.0001) %MON trAdv_CFL_u_max              =   7.7241761897584E-02
(PID.TID 0000.0001) %MON trAdv_CFL_v_max              =   3.6932249104693E-02
(PID.TID 0000.0001) %MON trAdv_CFL_w_max              =   4.8866136429910E-02
(PID.TID 0000.0001) %MON advcfl_uvel_max              =   7.7234007150351E-02
(PID.TID 0000.0001) %MON advcfl_vvel_max              =   3.6961941353492E-02
(PID.TID 0000.0001) %MON advcfl_wvel_max              =   4.5617285943618E-02
(PID.TID 0000.0001) %MON advcfl_W_hf_max              =   5.1319446686570E-02
(PID.TID 0000.0001) %MON pe_b_mean                    =   4.8152863151164E-04
(PID.TID 0000.0001) %MON ke_max                       =   1.5719366906194E-01
(PID.TID 0000.0001) %MON ke_mean                      =   1.2801968700081E-04
(PID.TID 0000.0001) %MON ke_vol                       =   1.2572502945428E+18
(PID.TID 0000.0001) %MON vort_r_min                   =  -8.9434134236033E-07
(PID.TID 0000.0001) %MON vort_r_max                   =   1.2109887456050E-06
(PID.TID 0000.0001) %MON vort_a_mean                  =  -2.3966255162188E-05
(PID.TID 0000.0001) %MON vort_a_sd                    =   7.3206857319149E-05
(PID.TID 0000.0001) %MON vort_p_mean                  =  -2.8692533918785E-05
(PID.TID 0000.0001) %MON vort_p_sd                    =   1.1861213215485E-04
(PID.TID 0000.0001) %MON surfExpan_theta_mean         =   4.7319210596871E-08
(PID.TID 0000.0001) %MON surfExpan_salt_mean          =  -1.6475494114396E-08
(PID.TID 0000.0001) // =======================================================
(PID.TID 0000.0001) // End MONITOR dynamic field statistics
(PID.TID 0000.0001) // =======================================================
(PID.TID 0000.0001) // =======================================================
(PID.TID 0000.0001) // Begin MONITOR ptracer field statistics
(PID.TID 0000.0001) // =======================================================
(PID.TID 0000.0001) %MON trcstat_ptracer01_max        =   2.2995302193815E+00
(PID.TID 0000.0001) %MON trcstat_ptracer01_min        =  -5.6131172278706E-01
(PID.TID 0000.0001) %MON trcstat_ptracer01_mean       =   9.8328057391697E-01
(PID.TID 0000.0001) %MON trcstat_ptracer01_sd         =   1.1106091093701E+00
(PID.TID 0000.0001) %MON trcstat_ptracer01_del2       =   2.0363568758603E-04
(PID.TID 0000.0001) %MON trcstat_ptracer02_max        =   2.4238834934643E+00
(PID.TID 0000.0001) %MON trcstat_ptracer02_min        =  -5.8823266259054E-01
(PID.TID 0000.0001) %MON trcstat_ptracer02_mean       =   1.0312236802658E+00
(PID.TID 0000.0001) %MON trcstat_ptracer02_sd         =   1.1645517814675E+00
(PID.TID 0000.0001) %MON trcstat_ptracer02_del2       =   2.1019073454903E-04
(PID.TID 0000.0001) %MON trcstat_ptracer03_max        =   2.4486956957955E-03
(PID.TID 0000.0001) %MON trcstat_ptracer03_min        =  -5.5209244511973E-04
(PID.TID 0000.0001) %MON trcstat_ptracer03_mean       =   9.6544315652057E-04
(PID.TID 0000.0001) %MON trcstat_ptracer03_sd         =   1.0966086412375E-03
(PID.TID 0000.0001) %MON trcstat_ptracer03_del2       =   3.4111711954085E-07
(PID.TID 0000.0001) %MON trcstat_ptracer04_max        =   3.9954713939466E-04
(PID.TID 0000.0001) %MON trcstat_ptracer04_min        =  -3.0095856205186E-07
(PID.TID 0000.0001) %MON trcstat_ptracer04_mean       =   5.6635940259596E-07
(PID.TID 0000.0001) %MON trcstat_ptracer04_sd         =   8.5526127124305E-06
(PID.TID 0000.0001) %MON trcstat_ptracer04_del2       =   2.7623549868863E-08
(PID.TID 0000.0001) %MON trcstat_ptracer05_max        =   3.7792913535043E-01
(PID.TID 0000.0001) %MON trcstat_ptracer05_min        =  -5.5458847866492E-02
(PID.TID 0000.0001) %MON trcstat_ptracer05_mean       =   8.3376400722477E-02
(PID.TID 0000.0001) %MON trcstat_ptracer05_sd         =   9.4979930308852E-02
(PID.TID 0000.0001) %MON trcstat_ptracer05_del2       =   4.7877625770024E-05
(PID.TID 0000.0001) %MON trcstat_ptracer06_max        =   3.4199320607475E-06
(PID.TID 0000.0001) %MON trcstat_ptracer06_min        =  -5.5346930467036E-11
(PID.TID 0000.0001) %MON trcstat_ptracer06_mean       =   3.8371300236168E-10
(PID.TID 0000.0001) %MON trcstat_ptracer06_sd         =   1.1987485818061E-08
(PID.TID 0000.0001) %MON trcstat_ptracer06_del2       =   7.2907249895543E-11
(PID.TID 0000.0001) %MON trcstat_ptracer07_max        =   3.7792913535043E-01
(PID.TID 0000.0001) %MON trcstat_ptracer07_min        =  -2.7920783437625E-02
(PID.TID 0000.0001) %MON trcstat_ptracer07_mean       =   5.5365253197639E-03
(PID.TID 0000.0001) %MON trcstat_ptracer07_sd         =   3.2569114742416E-02
(PID.TID 0000.0001) %MON trcstat_ptracer07_del2       =   9.3269412324466E-05
(PID.TID 0000.0001) %MON trcstat_ptracer08_max        =   2.4077978123082E+00
(PID.TID 0000.0001) %MON trcstat_ptracer08_min        =  -2.4620917332288E-01
(PID.TID 0000.0001) %MON trcstat_ptracer08_mean       =   5.0952617312025E-02
(PID.TID 0000.0001) %MON trcstat_ptracer08_sd         =   2.9659987786282E-01
(PID.TID 0000.0001) %MON trcstat_ptracer08_del2       =   7.7572730784574E-04
(PID.TID 0000.0001) %MON trcstat_ptracer09_max        =   2.2684390118582E+00
(PID.TID 0000.0001) %MON trcstat_ptracer09_min        =  -2.3383267530847E-01
(PID.TID 0000.0001) %MON trcstat_ptracer09_mean       =   4.6532903391080E-02
(PID.TID 0000.0001) %MON trcstat_ptracer09_sd         =   2.7052727114942E-01
(PID.TID 0000.0001) %MON trcstat_ptracer09_del2       =   7.1995177248042E-04
(PID.TID 0000.0001) // =======================================================
(PID.TID 0000.0001) // End MONITOR ptracer field statistics
(PID.TID 0000.0001) // =======================================================
 cg2d: Sum(rhs),rhsMax =  -9.07869193156330E-08  9.54696566951997E+00
 cg2d: Sum(rhs),rhsMax =  -9.07865995714019E-08  9.54692999068711E+00
 cg2d: Sum(rhs),rhsMax =  -9.07872106381546E-08  9.54684108541375E+00
 cg2d: Sum(rhs),rhsMax =  -9.07884682987969E-08  9.54669963264824E+00
 cg2d: Sum(rhs),rhsMax =  -9.07898467517043E-08  9.54650651972953E+00
 cg2d: Sum(rhs),rhsMax =  -9.07915449488428E-08  9.54626274758502E+00
 cg2d: Sum(rhs),rhsMax =  -9.07941455352557E-08  9.54596935750525E+00
 cg2d: Sum(rhs),rhsMax =  -9.07970800767544E-08  9.54562738075971E+00
 cg2d: Sum(rhs),rhsMax =  -9.08000501453898E-08  9.54523778248193E+00
 cg2d: Sum(rhs),rhsMax =  -9.08038089164620E-08  9.54480140259877E+00
 cg2d: Sum(rhs),rhsMax =  -9.08078732209106E-08  9.54431888382345E+00
 cg2d: Sum(rhs),rhsMax =  -9.08128896526250E-08  9.54379063440704E+00
 cg2d: Sum(rhs),rhsMax =  -9.08179274006216E-08  9.54321682610369E+00
 cg2d: Sum(rhs),rhsMax =  -9.08231072571652E-08  9.54259741627488E+00
 cg2d: Sum(rhs),rhsMax =  -9.08294239820862E-08  9.54193218180504E+00
 cg2d: Sum(rhs),rhsMax =  -9.08357407070071E-08  9.54122075566689E+00
 cg2d: Sum(rhs),rhsMax =  -9.08426116552619E-08  9.54046266149910E+00
 cg2d: Sum(rhs),rhsMax =  -9.08497668206110E-08  9.53965734943055E+00
 cg2d: Sum(rhs),rhsMax =  -9.08576467395505E-08  9.53880424419014E+00
 cg2d: Sum(rhs),rhsMax =  -9.08659032461401E-08  9.53790282192021E+00
 cg2d: Sum(rhs),rhsMax =  -9.08746713434994E-08  9.53695268180845E+00
 cg2d: Sum(rhs),rhsMax =  -9.08840078750472E-08  9.53595362230667E+00
 cg2d: Sum(rhs),rhsMax =  -9.08936215182621E-08  9.53490571447803E+00
 cg2d: Sum(rhs),rhsMax =  -9.09042654484438E-08  9.53380930168364E+00
 cg2d: Sum(rhs),rhsMax =  -9.09145470018302E-08  9.53266493640869E+00
 cg2d: Sum(rhs),rhsMax =  -9.09259227910297E-08  9.53147332889492E+00
 cg2d: Sum(rhs),rhsMax =  -9.09384141323244E-08  9.53023537646442E+00
 cg2d: Sum(rhs),rhsMax =  -9.09505217805417E-08  9.52895220993865E+00
 cg2d: Sum(rhs),rhsMax =  -9.09629278567081E-08  9.52762520262973E+00
 cg2d: Sum(rhs),rhsMax =  -9.09757815747980E-08  9.52625594300855E+00
 cg2d: Sum(rhs),rhsMax =  -9.09892747813501E-08  9.52484621149773E+00
 cg2d: Sum(rhs),rhsMax =  -9.10029882561503E-08  9.52339794221070E+00
 EXTERNAL_FIELDS_LOAD, it=   3600270 : Reading new data, i0,i1=    5    6 (prev=    4    5 )
 DIC_FIELDS_LOAD, it=   3600270 : Reading new data, i0,i1=    5    6 (prev=    4    5 )
 cg2d: Sum(rhs),rhsMax =  -9.10169930534721E-08  9.52191318167782E+00
 cg2d: Sum(rhs),rhsMax =  -9.10311257484864E-08  9.52041761022813E+00
 cg2d: Sum(rhs),rhsMax =  -9.10455213443129E-08  9.51892843351038E+00
 cg2d: Sum(rhs),rhsMax =  -9.10593485059508E-08  9.51746258399289E+00
 cg2d: Sum(rhs),rhsMax =  -9.10729625047679E-08  9.51603636817957E+00
 cg2d: Sum(rhs),rhsMax =  -9.10860507019606E-08  9.51466517931999E+00
 cg2d: Sum(rhs),rhsMax =  -9.10986344138109E-08  9.51336322967766E+00
 cg2d: Sum(rhs),rhsMax =  -9.11102233658312E-08  9.51214329321166E+00
 cg2d: Sum(rhs),rhsMax =  -9.11212367782355E-08  9.51101645114812E+00
 cg2d: Sum(rhs),rhsMax =  -9.11308219997409E-08  9.50999185515969E+00
(PID.TID 0000.0001) whio : write lev 3 rec   2
 cg2d: Sum(rhs),rhsMax =  -9.11397606273567E-08  9.50907652378690E+00
 cg2d: Sum(rhs),rhsMax =  -9.11473847509114E-08  9.50827517814543E+00
 cg2d: Sum(rhs),rhsMax =  -9.11540354309182E-08  9.50759014752173E+00
 cg2d: Sum(rhs),rhsMax =  -9.11595421371203E-08  9.50702134377118E+00
 cg2d: Sum(rhs),rhsMax =  -9.11640682943471E-08  9.50656629011210E+00
 cg2d: Sum(rhs),rhsMax =  -9.11673012637948E-08  9.50622019182364E+00
 cg2d: Sum(rhs),rhsMax =  -9.11696744765322E-08  9.50597606771963E+00
 cg2d: Sum(rhs),rhsMax =  -9.11708539774736E-08  9.50582494250500E+00
 cg2d: Sum(rhs),rhsMax =  -9.11716497853376E-08  9.50575608648473E+00
 cg2d: Sum(rhs),rhsMax =  -9.11714224116622E-08  9.50575729587021E+00
 cg2d: Sum(rhs),rhsMax =  -9.11708468720462E-08  9.50581523373235E+00
 cg2d: Sum(rhs),rhsMax =  -9.11699018502077E-08  9.50591575069248E+00
 cg2d: Sum(rhs),rhsMax =  -9.11685589244371E-08  9.50604420974297E+00
 cg2d: Sum(rhs),rhsMax =  -9.11669744141363E-08  9.50618583284504E+00
 cg2d: Sum(rhs),rhsMax =  -9.11656883317846E-08  9.50632606101357E+00
 cg2d: Sum(rhs),rhsMax =  -9.11643525114414E-08  9.50645090757042E+00
 cg2d: Sum(rhs),rhsMax =  -9.11635567035773E-08  9.50654729113363E+00
 cg2d: Sum(rhs),rhsMax =  -9.11632938027651E-08  9.50660334354173E+00
 cg2d: Sum(rhs),rhsMax =  -9.11633009081925E-08  9.50660868062301E+00
(PID.TID 0000.0001) // =======================================================
(PID.TID 0000.0001) // Begin MONITOR dynamic field statistics
(PID.TID 0000.0001) // =======================================================
(PID.TID 0000.0001) %MON time_tsnumber                =               3600299
(PID.TID 0000.0001) %MON time_secondsf                =   1.5553291680000E+11
(PID.TID 0000.0001) %MON dynstat_eta_max              =   8.6786206937423E-01
(PID.TID 0000.0001) %MON dynstat_eta_min              =  -1.5886909274685E+00
(PID.TID 0000.0001) %MON dynstat_eta_mean             =   3.0197787710130E-11
(PID.TID 0000.0001) %MON dynstat_eta_sd               =   6.1181388585558E-01
(PID.TID 0000.0001) %MON dynstat_eta_del2             =   1.2070579874714E-03
(PID.TID 0000.0001) %MON dynstat_uvel_max             =   2.8632484473419E-01
(PID.TID 0000.0001) %MON dynstat_uvel_min             =  -5.4469826186325E-01
(PID.TID 0000.0001) %MON dynstat_uvel_mean            =   1.7082000256013E-03
(PID.TID 0000.0001) %MON dynstat_uvel_sd              =   1.4420418050543E-02
(PID.TID 0000.0001) %MON dynstat_uvel_del2            =   5.9051441244916E-05
(PID.TID 0000.0001) %MON dynstat_vvel_max             =   3.2094453935358E-01
(PID.TID 0000.0001) %MON dynstat_vvel_min             =  -1.6711314924793E-01
(PID.TID 0000.0001) %MON dynstat_vvel_mean            =   1.2568921118743E-04
(PID.TID 0000.0001) %MON dynstat_vvel_sd              =   8.1105385659039E-03
(PID.TID 0000.0001) %MON dynstat_vvel_del2            =   4.4714233720339E-05
(PID.TID 0000.0001) %MON dynstat_wvel_max             =   6.1578368284870E-05
(PID.TID 0000.0001) %MON dynstat_wvel_min             =  -5.9141176045111E-05
(PID.TID 0000.0001) %MON dynstat_wvel_mean            =  -7.3865627932656E-23
(PID.TID 0000.0001) %MON dynstat_wvel_sd              =   2.4164051188079E-06
(PID.TID 0000.0001) %MON dynstat_wvel_del2            =   1.3051887191761E-08
(PID.TID 0000.0001) %MON dynstat_theta_max            =   3.5238129317552E+01
(PID.TID 0000.0001) %MON dynstat_theta_min            =  -2.3565068583735E+00
(PID.TID 0000.0001) %MON dynstat_theta_mean           =   4.0722187040765E+00
(PID.TID 0000.0001) %MON dynstat_theta_sd             =   4.2553238980556E+00
(PID.TID 0000.0001) %MON dynstat_theta_del2           =   2.5317507094579E-03
(PID.TID 0000.0001) %MON dynstat_salt_max             =   3.7606567581381E+01
(PID.TID 0000.0001) %MON dynstat_salt_min             =   3.1230308599991E+01
(PID.TID 0000.0001) %MON dynstat_salt_mean            =   3.5041115490469E+01
(PID.TID 0000.0001) %MON dynstat_salt_sd              =   3.0787119956665E-01
(PID.TID 0000.0001) %MON dynstat_salt_del2            =   3.6450019677527E-04
(PID.TID 0000.0001) %MON dynstat_sst_max              =   3.5238129317552E+01
(PID.TID 0000.0001) %MON dynstat_sst_min              =  -2.1519443043217E+00
(PID.TID 0000.0001) %MON dynstat_sst_mean             =   1.8274575545953E+01
(PID.TID 0000.0001) %MON dynstat_sst_sd               =   9.7321300475912E+00
(PID.TID 0000.0001) %MON dynstat_sst_del2             =   1.6255896823455E-02
(PID.TID 0000.0001) %MON dynstat_sss_max              =   3.7606567581381E+01
(PID.TID 0000.0001) %MON dynstat_sss_min              =   3.1230308599991E+01
(PID.TID 0000.0001) %MON dynstat_sss_mean             =   3.4889056959197E+01
(PID.TID 0000.0001) %MON dynstat_sss_sd               =   9.3735526604600E-01
(PID.TID 0000.0001) %MON dynstat_sss_del2             =   2.5858186773782E-03
(PID.TID 0000.0001) %MON forcing_qnet_max             =   2.6272046508789E+02
(PID.TID 0000.0001) %MON forcing_qnet_min             =  -2.1788589680990E+02
(PID.TID 0000.0001) %MON forcing_qnet_mean            =   2.3126623940089E+01
(PID.TID 0000.0001) %MON forcing_qnet_sd              =   8.6573618785442E+01
(PID.TID 0000.0001) %MON forcing_qnet_del2            =   2.7461459022137E-01
(PID.TID 0000.0001) %MON forcing_qsw_max              =   0.0000000000000E+00
(PID.TID 0000.0001) %MON forcing_qsw_min              =   0.0000000000000E+00
(PID.TID 0000.0001) %MON forcing_qsw_mean             =   0.0000000000000E+00
(PID.TID 0000.0001) %MON forcing_qsw_sd               =   0.0000000000000E+00
(PID.TID 0000.0001) %MON forcing_qsw_del2             =   0.0000000000000E+00
(PID.TID 0000.0001) %MON forcing_empmr_max            =   6.6865915471226E-05
(PID.TID 0000.0001) %MON forcing_empmr_min            =  -1.5018765964214E-04
(PID.TID 0000.0001) %MON forcing_empmr_mean           =   7.7320599494484E-09
(PID.TID 0000.0001) %MON forcing_empmr_sd             =   2.3858729798697E-05
(PID.TID 0000.0001) %MON forcing_empmr_del2           =   1.1192342175733E-07
(PID.TID 0000.0001) %MON forcing_fu_max               =   3.1724013686180E-01
(PID.TID 0000.0001) %MON forcing_fu_min               =  -3.4615656534831E-01
(PID.TID 0000.0001) %MON forcing_fu_mean              =   2.2557727630865E-02
(PID.TID 0000.0001) %MON forcing_fu_sd                =   9.4651329440944E-02
(PID.TID 0000.0001) %MON forcing_fu_del2              =   2.8475771683428E-04
(PID.TID 0000.0001) %MON forcing_fv_max               =   2.3774264554183E-01
(PID.TID 0000.0001) %MON forcing_fv_min               =  -1.5458224316438E-01
(PID.TID 0000.0001) %MON forcing_fv_mean              =  -9.4976449930403E-04
(PID.TID 0000.0001) %MON forcing_fv_sd                =   4.0863056637903E-02
(PID.TID 0000.0001) %MON forcing_fv_del2              =   1.8012773366630E-04
(PID.TID 0000.0001) %MON trAdv_CFL_u_max              =   7.5284371621106E-02
(PID.TID 0000.0001) %MON trAdv_CFL_v_max              =   4.4251709137800E-02
(PID.TID 0000.0001) %MON trAdv_CFL_w_max              =   4.5558582045322E-02
(PID.TID 0000.0001) %MON advcfl_uvel_max              =   7.5276813387605E-02
(PID.TID 0000.0001) %MON advcfl_vvel_max              =   4.4340890072769E-02
(PID.TID 0000.0001) %MON advcfl_wvel_max              =   4.5762832149468E-02
(PID.TID 0000.0001) %MON advcfl_W_hf_max              =   5.1483186168151E-02
(PID.TID 0000.0001) %MON pe_b_mean                    =   4.8239955540207E-04
(PID.TID 0000.0001) %MON ke_max                       =   1.5243464953772E-01
(PID.TID 0000.0001) %MON ke_mean                      =   1.2808683865859E-04
(PID.TID 0000.0001) %MON ke_vol                       =   1.2572502945428E+18
(PID.TID 0000.0001) %MON vort_r_min                   =  -9.1502964699080E-07
(PID.TID 0000.0001) %MON vort_r_max                   =   1.4957831895412E-06
(PID.TID 0000.0001) %MON vort_a_mean                  =  -2.3966255162188E-05
(PID.TID 0000.0001) %MON vort_a_sd                    =   7.3206855686466E-05
(PID.TID 0000.0001) %MON vort_p_mean                  =  -2.8692533918785E-05
(PID.TID 0000.0001) %MON vort_p_sd                    =   1.1861214977962E-04
(PID.TID 0000.0001) %MON surfExpan_theta_mean         =   7.7896524297233E-08
(PID.TID 0000.0001) %MON surfExpan_salt_mean          =  -3.2400769941577E-08
(PID.TID 0000.0001) // =======================================================
(PID.TID 0000.0001) // End MONITOR dynamic field statistics
(PID.TID 0000.0001) // =======================================================
(PID.TID 0000.0001) // =======================================================
(PID.TID 0000.0001) // Begin MONITOR ptracer field statistics
(PID.TID 0000.0001) // =======================================================
(PID.TID 0000.0001) %MON trcstat_ptracer01_max        =   2.2898396130950E+00
(PID.TID 0000.0001) %MON trcstat_ptracer01_min        =  -5.1851738079829E-01
(PID.TID 0000.0001) %MON trcstat_ptracer01_mean       =   9.8307234484160E-01
(PID.TID 0000.0001) %MON trcstat_ptracer01_sd         =   1.1076843199521E+00
(PID.TID 0000.0001) %MON trcstat_ptracer01_del2       =   1.9053539308283E-04
(PID.TID 0000.0001) %MON trcstat_ptracer02_max        =   2.4163518071322E+00
(PID.TID 0000.0001) %MON trcstat_ptracer02_min        =  -5.4341060739688E-01
(PID.TID 0000.0001) %MON trcstat_ptracer02_mean       =   1.0312271666060E+00
(PID.TID 0000.0001) %MON trcstat_ptracer02_sd         =   1.1617256365420E+00
(PID.TID 0000.0001) %MON trcstat_ptracer02_del2       =   1.9544481354041E-04
(PID.TID 0000.0001) %MON trcstat_ptracer03_max        =   2.4612517392045E-03
(PID.TID 0000.0001) %MON trcstat_ptracer03_min        =  -5.0986103076844E-04
(PID.TID 0000.0001) %MON trcstat_ptracer03_mean       =   9.6523098867453E-04
(PID.TID 0000.0001) %MON trcstat_ptracer03_sd         =   1.0933245672473E-03
(PID.TID 0000.0001) %MON trcstat_ptracer03_del2       =   3.4237245638232E-07
(PID.TID 0000.0001) %MON trcstat_ptracer04_max        =   4.8787379447957E-04
(PID.TID 0000.0001) %MON trcstat_ptracer04_min        =  -5.3311825855864E-07
(PID.TID 0000.0001) %MON trcstat_ptracer04_mean       =   7.6705028850386E-07
(PID.TID 0000.0001) %MON trcstat_ptracer04_sd         =   1.1133281160818E-05
(PID.TID 0000.0001) %MON trcstat_ptracer04_del2       =   3.2695462203986E-08
(PID.TID 0000.0001) %MON trcstat_ptracer05_max        =   3.7336699234025E-01
(PID.TID 0000.0001) %MON trcstat_ptracer05_min        =  -5.2081913232951E-02
(PID.TID 0000.0001) %MON trcstat_ptracer05_mean       =   8.3631127941821E-02
(PID.TID 0000.0001) %MON trcstat_ptracer05_sd         =   9.5030565192723E-02
(PID.TID 0000.0001) %MON trcstat_ptracer05_del2       =   5.1193852238823E-05
(PID.TID 0000.0001) %MON trcstat_ptracer06_max        =   3.3750258807197E-06
(PID.TID 0000.0001) %MON trcstat_ptracer06_min        =  -2.4497199236316E-11
(PID.TID 0000.0001) %MON trcstat_ptracer06_mean       =   4.5303622478845E-10
(PID.TID 0000.0001) %MON trcstat_ptracer06_sd         =   1.3357117125512E-08
(PID.TID 0000.0001) %MON trcstat_ptracer06_del2       =   7.9746194852389E-11
(PID.TID 0000.0001) %MON trcstat_ptracer07_max        =   3.7317139247765E-01
(PID.TID 0000.0001) %MON trcstat_ptracer07_min        =  -2.8816375823176E-02
(PID.TID 0000.0001) %MON trcstat_ptracer07_mean       =   6.1731832233573E-03
(PID.TID 0000.0001) %MON trcstat_ptracer07_sd         =   3.4259872271621E-02
(PID.TID 0000.0001) %MON trcstat_ptracer07_del2       =   9.8498916965133E-05
(PID.TID 0000.0001) %MON trcstat_ptracer08_max        =   2.3731854862583E+00
(PID.TID 0000.0001) %MON trcstat_ptracer08_min        =  -2.5516667236106E-01
(PID.TID 0000.0001) %MON trcstat_ptracer08_mean       =   5.6592024092424E-02
(PID.TID 0000.0001) %MON trcstat_ptracer08_sd         =   3.1128415139617E-01
(PID.TID 0000.0001) %MON trcstat_ptracer08_del2       =   8.1196410413674E-04
(PID.TID 0000.0001) %MON trcstat_ptracer09_max        =   2.2397582995819E+00
(PID.TID 0000.0001) %MON trcstat_ptracer09_min        =  -2.4234138337201E-01
(PID.TID 0000.0001) %MON trcstat_ptracer09_mean       =   5.1690043799230E-02
(PID.TID 0000.0001) %MON trcstat_ptracer09_sd         =   2.8376857775831E-01
(PID.TID 0000.0001) %MON trcstat_ptracer09_del2       =   7.5296041925050E-04
(PID.TID 0000.0001) // =======================================================
(PID.TID 0000.0001) // End MONITOR ptracer field statistics
(PID.TID 0000.0001) // =======================================================
 cg2d: Sum(rhs),rhsMax =  -9.11639332912273E-08  9.50655462562515E+00
 cg2d: Sum(rhs),rhsMax =  -9.11649706836215E-08  9.50643436311089E+00
 cg2d: Sum(rhs),rhsMax =  -9.11672302095212E-08  9.50624304674150E+00
 cg2d: Sum(rhs),rhsMax =  -9.11696460548228E-08  9.50597781905916E+00
 cg2d: Sum(rhs),rhsMax =  -9.11727440211507E-08  9.50563777710892E+00
 cg2d: Sum(rhs),rhsMax =  -9.11770854372662E-08  9.50522393135291E+00
 cg2d: Sum(rhs),rhsMax =  -9.11816186999204E-08  9.50473911463816E+00
 cg2d: Sum(rhs),rhsMax =  -9.11870614572763E-08  9.50418773930678E+00
 cg2d: Sum(rhs),rhsMax =  -9.11928168534359E-08  9.50357558691374E+00
 cg2d: Sum(rhs),rhsMax =  -9.11992827923314E-08  9.50290964447458E+00
 cg2d: Sum(rhs),rhsMax =  -9.12065729608003E-08  9.50219791542795E+00
 cg2d: Sum(rhs),rhsMax =  -9.12139270781154E-08  9.50144918276843E+00
 cg2d: Sum(rhs),rhsMax =  -9.12212811954305E-08  9.50067274580360E+00
 cg2d: Sum(rhs),rhsMax =  -9.12293955934729E-08  9.49987815929010E+00
 cg2d: Sum(rhs),rhsMax =  -9.12369131356172E-08  9.49907498366882E+00
 cg2d: Sum(rhs),rhsMax =  -9.12447788437021E-08  9.49827255755378E+00
 cg2d: Sum(rhs),rhsMax =  -9.12528008711888E-08  9.49747978836020E+00
 cg2d: Sum(rhs),rhsMax =  -9.12602686753416E-08  9.49670496341604E+00
 cg2d: Sum(rhs),rhsMax =  -9.12679780640246E-08  9.49595558374171E+00
 cg2d: Sum(rhs),rhsMax =  -9.12747850634332E-08  9.49523821505845E+00
 cg2d: Sum(rhs),rhsMax =  -9.12811941589098E-08  9.49455836839740E+00
 cg2d: Sum(rhs),rhsMax =  -9.12878306280618E-08  9.49392042323925E+00
 cg2d: Sum(rhs),rhsMax =  -9.12937139219139E-08  9.49332754785973E+00
 cg2d: Sum(rhs),rhsMax =  -9.12992632606802E-08  9.49278165465699E+00
 cg2d: Sum(rhs),rhsMax =  -9.13035833605136E-08  9.49228339433203E+00
 cg2d: Sum(rhs),rhsMax =  -9.13086424247922E-08  9.49183218209292E+00
 cg2d: Sum(rhs),rhsMax =  -9.13127422563775E-08  9.49142625728328E+00
 cg2d: Sum(rhs),rhsMax =  -9.13163518134752E-08  9.49106276286301E+00
 cg2d: Sum(rhs),rhsMax =  -9.13194782015125E-08  9.49073783789306E+00
 cg2d: Sum(rhs),rhsMax =  -9.13225406407037E-08  9.49044672400271E+00
 cg2d: Sum(rhs),rhsMax =  -9.13253046519458E-08  9.49018390323782E+00
 EXTERNAL_FIELDS_LOAD, it=   3600330 : Reading new data, i0,i1=    6    7 (prev=    5    6 )
 DIC_FIELDS_LOAD, it=   3600330 : Reading new data, i0,i1=    6    7 (prev=    5    6 )
 cg2d: Sum(rhs),rhsMax =  -9.13276210212643E-08  9.48994325700856E+00
 cg2d: Sum(rhs),rhsMax =  -9.13303352945150E-08  9.48970801758053E+00
 cg2d: Sum(rhs),rhsMax =  -9.13328221940901E-08  9.48946471682098E+00
 cg2d: Sum(rhs),rhsMax =  -9.13353943587936E-08  9.48919980375378E+00
 cg2d: Sum(rhs),rhsMax =  -9.13383644274290E-08  9.48889996251626E+00
 cg2d: Sum(rhs),rhsMax =  -9.13418460868343E-08  9.48855235316500E+00
 cg2d: Sum(rhs),rhsMax =  -9.13461093432488E-08  9.48814487205053E+00
 cg2d: Sum(rhs),rhsMax =  -9.13508344524416E-08  9.48766639266868E+00
 cg2d: Sum(rhs),rhsMax =  -9.13563624749258E-08  9.48710698236420E+00
 cg2d: Sum(rhs),rhsMax =  -9.13624518261713E-08  9.48645808347463E+00
 cg2d: Sum(rhs),rhsMax =  -9.13698130489138E-08  9.48571268422533E+00
 cg2d: Sum(rhs),rhsMax =  -9.13783111400335E-08  9.48486545850383E+00
 cg2d: Sum(rhs),rhsMax =  -9.13876760932908E-08  9.48391285858374E+00
 cg2d: Sum(rhs),rhsMax =  -9.13977800109933E-08  9.48285315351105E+00
 cg2d: Sum(rhs),rhsMax =  -9.14093334358768E-08  9.48168641391458E+00
 cg2d: Sum(rhs),rhsMax =  -9.14215760872139E-08  9.48041445516485E+00
 cg2d: Sum(rhs),rhsMax =  -9.14348703418000E-08  9.47904073781749E+00
 cg2d: Sum(rhs),rhsMax =  -9.14490314585237E-08  9.47757022510765E+00
 cg2d: Sum(rhs),rhsMax =  -9.14641802296501E-08  9.47600920384239E+00
 cg2d: Sum(rhs),rhsMax =  -9.14802384954783E-08  9.47436507523804E+00
 cg2d: Sum(rhs),rhsMax =  -9.14970428311790E-08  9.47264612546539E+00
 cg2d: Sum(rhs),rhsMax =  -9.15143658630768E-08  9.47086128598380E+00
 cg2d: Sum(rhs),rhsMax =  -9.15317244221114E-08  9.46901988541289E+00
 cg2d: Sum(rhs),rhsMax =  -9.15503548526431E-08  9.46713139755286E+00
 cg2d: Sum(rhs),rhsMax =  -9.15688005420634E-08  9.46520519129246E+00
 cg2d: Sum(rhs),rhsMax =  -9.15879354579374E-08  9.46325027783096E+00
 cg2d: Sum(rhs),rhsMax =  -9.16070561629567E-08  9.46127510172983E+00
 cg2d: Sum(rhs),rhsMax =  -9.16269016215665E-08  9.45928736176468E+00
 cg2d: Sum(rhs),rhsMax =  -9.16458375854745E-08  9.45729384446051E+00
 cg2d: Sum(rhs),rhsMax =  -9.16652354021608E-08  9.45530032221759E+00
(PID.TID 0000.0001) // =======================================================
(PID.TID 0000.0001) // Begin MONITOR dynamic field statistics
(PID.TID 0000.0001) // =======================================================
(PID.TID 0000.0001) %MON time_tsnumber                =               3600360
(PID.TID 0000.0001) %MON time_secondsf                =   1.5553555200000E+11
(PID.TID 0000.0001) %MON dynstat_eta_max              =   8.5310918230432E-01
(PID.TID 0000.0001) %MON dynstat_eta_min              =  -1.5883943811562E+00
(PID.TID 0000.0001) %MON dynstat_eta_mean             =   3.0200280465539E-11
(PID.TID 0000.0001) %MON dynstat_eta_sd               =   6.1175541361977E-01
(PID.TID 0000.0001) %MON dynstat_eta_del2             =   1.2001544535255E-03
(PID.TID 0000.0001) %MON dynstat_uvel_max             =   3.5570450345076E-01
(PID.TID 0000.0001) %MON dynstat_uvel_min             =  -4.8781721418643E-01
(PID.TID 0000.0001) %MON dynstat_uvel_mean            =   1.7248370510886E-03
(PID.TID 0000.0001) %MON dynstat_uvel_sd              =   1.4603882781947E-02
(PID.TID 0000.0001) %MON dynstat_uvel_del2            =   6.0370811370415E-05
(PID.TID 0000.0001) %MON dynstat_vvel_max             =   4.3432207594933E-01
(PID.TID 0000.0001) %MON dynstat_vvel_min             =  -1.9194815339827E-01
(PID.TID 0000.0001) %MON dynstat_vvel_mean            =   1.3015649218664E-04
(PID.TID 0000.0001) %MON dynstat_vvel_sd              =   8.2515435250794E-03
(PID.TID 0000.0001) %MON dynstat_vvel_del2            =   4.5854898232801E-05
(PID.TID 0000.0001) %MON dynstat_wvel_max             =   6.2460209946156E-05
(PID.TID 0000.0001) %MON dynstat_wvel_min             =  -5.9120676374298E-05
(PID.TID 0000.0001) %MON dynstat_wvel_mean            =   6.1554689943880E-24
(PID.TID 0000.0001) %MON dynstat_wvel_sd              =   2.4603404060034E-06
(PID.TID 0000.0001) %MON dynstat_wvel_del2            =   1.3138837650949E-08
(PID.TID 0000.0001) %MON dynstat_theta_max            =   3.4718791247329E+01
(PID.TID 0000.0001) %MON dynstat_theta_min            =  -2.3510460281526E+00
(PID.TID 0000.0001) %MON dynstat_theta_mean           =   4.0680377853758E+00
(PID.TID 0000.0001) %MON dynstat_theta_sd             =   4.2432444668444E+00
(PID.TID 0000.0001) %MON dynstat_theta_del2           =   2.5506381911690E-03
(PID.TID 0000.0001) %MON dynstat_salt_max             =   3.7620802903467E+01
(PID.TID 0000.0001) %MON dynstat_salt_min             =   3.1260814741176E+01
(PID.TID 0000.0001) %MON dynstat_salt_mean            =   3.5041137605247E+01
(PID.TID 0000.0001) %MON dynstat_salt_sd              =   3.0774899470427E-01
(PID.TID 0000.0001) %MON dynstat_salt_del2            =   3.6340484846595E-04
(PID.TID 0000.0001) %MON dynstat_sst_max              =   3.4718791247329E+01
(PID.TID 0000.0001) %MON dynstat_sst_min              =  -2.1460071287480E+00
(PID.TID 0000.0001) %MON dynstat_sst_mean             =   1.8123925287544E+01
(PID.TID 0000.0001) %MON dynstat_sst_sd               =   9.5141837188703E+00
(PID.TID 0000.0001) %MON dynstat_sst_del2             =   1.6098157586556E-02
(PID.TID 0000.0001) %MON dynstat_sss_max              =   3.7620802903467E+01
(PID.TID 0000.0001) %MON dynstat_sss_min              =   3.1260814741176E+01
(PID.TID 0000.0001) %MON dynstat_sss_mean             =   3.4895034996379E+01
(PID.TID 0000.0001) %MON dynstat_sss_sd               =   9.3187426826236E-01
(PID.TID 0000.0001) %MON dynstat_sss_del2             =   2.5600268548051E-03
(PID.TID 0000.0001) %MON forcing_qnet_max             =   2.6053296203613E+02
(PID.TID 0000.0001) %MON forcing_qnet_min             =  -2.1091961364746E+02
(PID.TID 0000.0001) %MON forcing_qnet_mean            =   2.6334299619346E+01
(PID.TID 0000.0001) %MON forcing_qnet_sd              =   9.2021881006046E+01
(PID.TID 0000.0001) %MON forcing_qnet_del2            =   2.7869286022034E-01
(PID.TID 0000.0001) %MON forcing_qsw_max              =   0.0000000000000E+00
(PID.TID 0000.0001) %MON forcing_qsw_min              =   0.0000000000000E+00
(PID.TID 0000.0001) %MON forcing_qsw_mean             =   0.0000000000000E+00
(PID.TID 0000.0001) %MON forcing_qsw_sd               =   0.0000000000000E+00
(PID.TID 0000.0001) %MON forcing_qsw_del2             =   0.0000000000000E+00
(PID.TID 0000.0001) %MON forcing_empmr_max            =   6.6865915471226E-05
(PID.TID 0000.0001) %MON forcing_empmr_min            =  -1.5018765964214E-04
(PID.TID 0000.0001) %MON forcing_empmr_mean           =   7.7320599494484E-09
(PID.TID 0000.0001) %MON forcing_empmr_sd             =   2.3858729798697E-05
(PID.TID 0000.0001) %MON forcing_empmr_del2           =   1.1192342175733E-07
(PID.TID 0000.0001) %MON forcing_fu_max               =   3.6880682756503E-01
(PID.TID 0000.0001) %MON forcing_fu_min               =  -3.6342302262783E-01
(PID.TID 0000.0001) %MON forcing_fu_mean              =   2.5739145968107E-02
(PID.TID 0000.0001) %MON forcing_fu_sd                =   1.0069462079121E-01
(PID.TID 0000.0001) %MON forcing_fu_del2              =   3.0695413829797E-04
(PID.TID 0000.0001) %MON forcing_fv_max               =   3.7291245907545E-01
(PID.TID 0000.0001) %MON forcing_fv_min               =  -1.8195973783731E-01
(PID.TID 0000.0001) %MON forcing_fv_mean              =   1.5239118317137E-03
(PID.TID 0000.0001) %MON forcing_fv_sd                =   4.6277872237329E-02
(PID.TID 0000.0001) %MON forcing_fv_del2              =   2.1464579989329E-04
(PID.TID 0000.0001) %MON trAdv_CFL_u_max              =   6.7422672344059E-02
(PID.TID 0000.0001) %MON trAdv_CFL_v_max              =   5.9884160097397E-02
(PID.TID 0000.0001) %MON trAdv_CFL_w_max              =   4.6229179602579E-02
(PID.TID 0000.0001) %MON advcfl_uvel_max              =   6.7415903392019E-02
(PID.TID 0000.0001) %MON advcfl_vvel_max              =   6.0004845275244E-02
(PID.TID 0000.0001) %MON advcfl_wvel_max              =   4.6824882987377E-02
(PID.TID 0000.0001) %MON advcfl_W_hf_max              =   5.8418953467665E-02
(PID.TID 0000.0001) %MON pe_b_mean                    =   4.8230735209216E-04
(PID.TID 0000.0001) %MON ke_max                       =   1.3260192207429E-01
(PID.TID 0000.0001) %MON ke_mean                      =   1.3164485084306E-04
(PID.TID 0000.0001) %MON ke_vol                       =   1.2572502945428E+18
(PID.TID 0000.0001) %MON vort_r_min                   =  -1.0584562485565E-06
(PID.TID 0000.0001) %MON vort_r_max                   =   2.3834971808782E-06
(PID.TID 0000.0001) %MON vort_a_mean                  =  -2.3966255162188E-05
(PID.TID 0000.0001) %MON vort_a_sd                    =   7.3206858922649E-05
(PID.TID 0000.0001) %MON vort_p_mean                  =  -2.8692533918785E-05
(PID.TID 0000.0001) %MON vort_p_sd                    =   1.1861215495604E-04
(PID.TID 0000.0001) %MON surfExpan_theta_mean         =   1.9628164714415E-07
(PID.TID 0000.0001) %MON surfExpan_salt_mean          =  -3.1738540202456E-08
(PID.TID 0000.0001) // =======================================================
(PID.TID 0000.0001) // End MONITOR dynamic field statistics
(PID.TID 0000.0001) // =======================================================
(PID.TID 0000.0001) // =======================================================
(PID.TID 0000.0001) // Begin MONITOR ptracer field statistics
(PID.TID 0000.0001) // =======================================================
(PID.TID 0000.0001) %MON trcstat_ptracer01_max        =   2.2931690925520E+00
(PID.TID 0000.0001) %MON trcstat_ptracer01_min        =  -4.3882716305139E-01
(PID.TID 0000.0001) %MON trcstat_ptracer01_mean       =   9.8284795420371E-01
(PID.TID 0000.0001) %MON trcstat_ptracer01_sd         =   1.1049555457175E+00
(PID.TID 0000.0001) %MON trcstat_ptracer01_del2       =   1.8505183743928E-04
(PID.TID 0000.0001) %MON trcstat_ptracer02_max        =   2.4189359143687E+00
(PID.TID 0000.0001) %MON trcstat_ptracer02_min        =  -4.6070056713493E-01
(PID.TID 0000.0001) %MON trcstat_ptracer02_mean       =   1.0312309299015E+00
(PID.TID 0000.0001) %MON trcstat_ptracer02_sd         =   1.1591279746660E+00
(PID.TID 0000.0001) %MON trcstat_ptracer02_del2       =   1.8816207538231E-04
(PID.TID 0000.0001) %MON trcstat_ptracer03_max        =   2.4721089221216E-03
(PID.TID 0000.0001) %MON trcstat_ptracer03_min        =  -4.3172144454012E-04
(PID.TID 0000.0001) %MON trcstat_ptracer03_mean       =   9.6501654371294E-04
(PID.TID 0000.0001) %MON trcstat_ptracer03_sd         =   1.0902500645740E-03
(PID.TID 0000.0001) %MON trcstat_ptracer03_del2       =   3.4950758681151E-07
(PID.TID 0000.0001) %MON trcstat_ptracer04_max        =   5.6639840236685E-04
(PID.TID 0000.0001) %MON trcstat_ptracer04_min        =  -6.9838334952992E-07
(PID.TID 0000.0001) %MON trcstat_ptracer04_mean       =   9.7126731832489E-07
(PID.TID 0000.0001) %MON trcstat_ptracer04_sd         =   1.3715655460553E-05
(PID.TID 0000.0001) %MON trcstat_ptracer04_del2       =   3.8711303069691E-08
(PID.TID 0000.0001) %MON trcstat_ptracer05_max        =   3.7574349425091E-01
(PID.TID 0000.0001) %MON trcstat_ptracer05_min        =  -4.3912306048683E-02
(PID.TID 0000.0001) %MON trcstat_ptracer05_mean       =   8.3942601757271E-02
(PID.TID 0000.0001) %MON trcstat_ptracer05_sd         =   9.5163903445957E-02
(PID.TID 0000.0001) %MON trcstat_ptracer05_del2       =   5.3889220091175E-05
(PID.TID 0000.0001) %MON trcstat_ptracer06_max        =   3.2268765476199E-06
(PID.TID 0000.0001) %MON trcstat_ptracer06_min        =   3.4145552467627E-14
(PID.TID 0000.0001) %MON trcstat_ptracer06_mean       =   5.8680838121042E-10
(PID.TID 0000.0001) %MON trcstat_ptracer06_sd         =   1.6314355456967E-08
(PID.TID 0000.0001) %MON trcstat_ptracer06_del2       =   1.0817709976793E-10
(PID.TID 0000.0001) %MON trcstat_ptracer07_max        =   3.7574349425091E-01
(PID.TID 0000.0001) %MON trcstat_ptracer07_min        =  -2.5225938000933E-02
(PID.TID 0000.0001) %MON trcstat_ptracer07_mean       =   6.9479633321557E-03
(PID.TID 0000.0001) %MON trcstat_ptracer07_sd         =   3.6189757580938E-02
(PID.TID 0000.0001) %MON trcstat_ptracer07_del2       =   1.0516804674434E-04
(PID.TID 0000.0001) %MON trcstat_ptracer08_max        =   2.3706182224447E+00
(PID.TID 0000.0001) %MON trcstat_ptracer08_min        =  -2.2711708122630E-01
(PID.TID 0000.0001) %MON trcstat_ptracer08_mean       =   6.3522965909159E-02
(PID.TID 0000.0001) %MON trcstat_ptracer08_sd         =   3.2863936150431E-01
(PID.TID 0000.0001) %MON trcstat_ptracer08_del2       =   8.7899326524381E-04
(PID.TID 0000.0001) %MON trcstat_ptracer09_max        =   2.2396220014424E+00
(PID.TID 0000.0001) %MON trcstat_ptracer09_min        =  -2.1569828703904E-01
(PID.TID 0000.0001) %MON trcstat_ptracer09_mean       =   5.8084211743737E-02
(PID.TID 0000.0001) %MON trcstat_ptracer09_sd         =   2.9982530765738E-01
(PID.TID 0000.0001) %MON trcstat_ptracer09_del2       =   8.1492963910379E-04
(PID.TID 0000.0001) // =======================================================
(PID.TID 0000.0001) // End MONITOR ptracer field statistics
(PID.TID 0000.0001) // =======================================================
 cg2d: Sum(rhs),rhsMax =  -9.16847469056847E-08  9.45331147339530E+00
 cg2d: Sum(rhs),rhsMax =  -9.17041660386531E-08  9.45133082537812E+00
 cg2d: Sum(rhs),rhsMax =  -9.17234714847837E-08  9.44936073119909E+00
 cg2d: Sum(rhs),rhsMax =  -9.17423008672813E-08  9.44740238220463E+00
 cg2d: Sum(rhs),rhsMax =  -9.17614002560185E-08  9.44545585645758E+00
 cg2d: Sum(rhs),rhsMax =  -9.17801870059520E-08  9.44352020252140E+00
 cg2d: Sum(rhs),rhsMax =  -9.17989737558855E-08  9.44159355733174E+00
 cg2d: Sum(rhs),rhsMax =  -9.18179097197935E-08  9.43967327626014E+00
 cg2d: Sum(rhs),rhsMax =  -9.18367177860091E-08  9.43775607395104E+00
 cg2d: Sum(rhs),rhsMax =  -9.18552629514124E-08  9.43583817490269E+00
 cg2d: Sum(rhs),rhsMax =  -9.18742912858761E-08  9.43391546318717E+00
 cg2d: Sum(rhs),rhsMax =  -9.18933977800407E-08  9.43198362529795E+00
 cg2d: Sum(rhs),rhsMax =  -9.19123053222393E-08  9.43003828806143E+00
 cg2d: Sum(rhs),rhsMax =  -9.19319091963189E-08  9.42807514245689E+00
 cg2d: Sum(rhs),rhsMax =  -9.19516196518089E-08  9.42609005034801E+00
 cg2d: Sum(rhs),rhsMax =  -9.19711453661876E-08  9.42407914155286E+00
 cg2d: Sum(rhs),rhsMax =  -9.19916374186869E-08  9.42203890101561E+00
 cg2d: Sum(rhs),rhsMax =  -9.20122005254598E-08  9.41996625280574E+00
 cg2d: Sum(rhs),rhsMax =  -9.20328773190704E-08  9.41785862954787E+00
 cg2d: Sum(rhs),rhsMax =  -9.20541722848611E-08  9.41571402403211E+00
 cg2d: Sum(rhs),rhsMax =  -9.20761920042423E-08  9.41353104362712E+00
 cg2d: Sum(rhs),rhsMax =  -9.20975224971698E-08  9.41130897700722E+00
 cg2d: Sum(rhs),rhsMax =  -9.21202243375774E-08  9.40904782014454E+00
 cg2d: Sum(rhs),rhsMax =  -9.21427556477283E-08  9.40674826682519E+00
 cg2d: Sum(rhs),rhsMax =  -9.21658624974953E-08  9.40441167656376E+00
 cg2d: Sum(rhs),rhsMax =  -9.21897651551262E-08  9.40204003109270E+00
 cg2d: Sum(rhs),rhsMax =  -9.22136393910478E-08  9.39963588692061E+00
 cg2d: Sum(rhs),rhsMax =  -9.22377765277815E-08  9.39720232327049E+00
 cg2d: Sum(rhs),rhsMax =  -9.22617147125493E-08  9.39474287623570E+00
 cg2d: Sum(rhs),rhsMax =  -9.22866476571471E-08  9.39226147078604E+00
 EXTERNAL_FIELDS_LOAD, it=   3600390 : Reading new data, i0,i1=    7    8 (prev=    6    7 )
 DIC_FIELDS_LOAD, it=   3600390 : Reading new data, i0,i1=    7    8 (prev=    6    7 )
 cg2d: Sum(rhs),rhsMax =  -9.23120353490958E-08  9.38976233427929E+00
 cg2d: Sum(rhs),rhsMax =  -9.23369185557021E-08  9.38724381347799E+00
 cg2d: Sum(rhs),rhsMax =  -9.23620930848301E-08  9.38470550458213E+00
 cg2d: Sum(rhs),rhsMax =  -9.23878431535741E-08  9.38214640732935E+00
 cg2d: Sum(rhs),rhsMax =  -9.24133303215058E-08  9.37956498127073E+00
 cg2d: Sum(rhs),rhsMax =  -9.24395564538827E-08  9.37695924403383E+00
 cg2d: Sum(rhs),rhsMax =  -9.24659673273709E-08  9.37432689628576E+00
 cg2d: Sum(rhs),rhsMax =  -9.24926268908166E-08  9.37166545130188E+00
 cg2d: Sum(rhs),rhsMax =  -9.25199330481519E-08  9.36897236493602E+00
 cg2d: Sum(rhs),rhsMax =  -9.25472107837777E-08  9.36624514198210E+00
 cg2d: Sum(rhs),rhsMax =  -9.25749148450450E-08  9.36348144222541E+00
 cg2d: Sum(rhs),rhsMax =  -9.26027894365689E-08  9.36067916467522E+00
 cg2d: Sum(rhs),rhsMax =  -9.26316801042049E-08  9.35783651518778E+00
 cg2d: Sum(rhs),rhsMax =  -9.26604357687211E-08  9.35495205473915E+00
 cg2d: Sum(rhs),rhsMax =  -9.26899872411013E-08  9.35202472862356E+00
 cg2d: Sum(rhs),rhsMax =  -9.27198087197212E-08  9.34905386050751E+00
 cg2d: Sum(rhs),rhsMax =  -9.27502270542391E-08  9.34603912446753E+00
 cg2d: Sum(rhs),rhsMax =  -9.27809580275607E-08  9.34298052032945E+00
 cg2d: Sum(rhs),rhsMax =  -9.28122148025068E-08  9.33987837125357E+00
 cg2d: Sum(rhs),rhsMax =  -9.28438836922396E-08  9.33673332003228E+00
 cg2d: Sum(rhs),rhsMax =  -9.28756591633828E-08  9.33354631509102E+00
 cg2d: Sum(rhs),rhsMax =  -9.29085999246126E-08  9.33031856217985E+00
 cg2d: Sum(rhs),rhsMax =  -9.29414056827227E-08  9.32705144157814E+00
 cg2d: Sum(rhs),rhsMax =  -9.29742824951063E-08  9.32374640924821E+00
 cg2d: Sum(rhs),rhsMax =  -9.30079835370634E-08  9.32040491207867E+00
 cg2d: Sum(rhs),rhsMax =  -9.30417982658582E-08  9.31702830536998E+00
 cg2d: Sum(rhs),rhsMax =  -9.30764798567907E-08  9.31361778906816E+00
 cg2d: Sum(rhs),rhsMax =  -9.31104011669959E-08  9.31017435680010E+00
 cg2d: Sum(rhs),rhsMax =  -9.31454593455783E-08  9.30669874783390E+00
 cg2d: Sum(rhs),rhsMax =  -9.31809367443748E-08  9.30319140183628E+00
 cg2d: Sum(rhs),rhsMax =  -9.32159238686836E-08  9.29965242032067E+00
(PID.TID 0000.0001) // =======================================================
(PID.TID 0000.0001) // Begin MONITOR dynamic field statistics
(PID.TID 0000.0001) // =======================================================
(PID.TID 0000.0001) %MON time_tsnumber                =               3600421
(PID.TID 0000.0001) %MON time_secondsf                =   1.5553818720000E+11
(PID.TID 0000.0001) %MON dynstat_eta_max              =   8.4668240013593E-01
(PID.TID 0000.0001) %MON dynstat_eta_min              =  -1.5892982516490E+00
(PID.TID 0000.0001) %MON dynstat_eta_mean             =   3.0205675128809E-11
(PID.TID 0000.0001) %MON dynstat_eta_sd               =   6.1142813379449E-01
(PID.TID 0000.0001) %MON dynstat_eta_del2             =   1.2027622303238E-03
(PID.TID 0000.0001) %MON dynstat_uvel_max             =   3.5877054751348E-01
(PID.TID 0000.0001) %MON dynstat_uvel_min             =  -4.8357061979671E-01
(PID.TID 0000.0001) %MON dynstat_uvel_mean            =   1.7119542999979E-03
(PID.TID 0000.0001) %MON dynstat_uvel_sd              =   1.4729854341187E-02
(PID.TID 0000.0001) %MON dynstat_uvel_del2            =   6.3599218164360E-05
(PID.TID 0000.0001) %MON dynstat_vvel_max             =   4.3872538684704E-01
(PID.TID 0000.0001) %MON dynstat_vvel_min             =  -3.0435277043085E-01
(PID.TID 0000.0001) %MON dynstat_vvel_mean            =   1.2152866882208E-04
(PID.TID 0000.0001) %MON dynstat_vvel_sd              =   8.5787560251719E-03
(PID.TID 0000.0001) %MON dynstat_vvel_del2            =   4.8536048295404E-05
(PID.TID 0000.0001) %MON dynstat_wvel_max             =   6.3113132230513E-05
(PID.TID 0000.0001) %MON dynstat_wvel_min             =  -5.9114240078816E-05
(PID.TID 0000.0001) %MON dynstat_wvel_mean            =   1.3542031787654E-22
(PID.TID 0000.0001) %MON dynstat_wvel_sd              =   2.5190027469973E-06
(PID.TID 0000.0001) %MON dynstat_wvel_del2            =   1.3377783999969E-08
(PID.TID 0000.0001) %MON dynstat_theta_max            =   3.4044956975958E+01
(PID.TID 0000.0001) %MON dynstat_theta_min            =  -2.3461128472038E+00
(PID.TID 0000.0001) %MON dynstat_theta_mean           =   4.0641654825428E+00
(PID.TID 0000.0001) %MON dynstat_theta_sd             =   4.2341253499735E+00
(PID.TID 0000.0001) %MON dynstat_theta_del2           =   2.6165139449699E-03
(PID.TID 0000.0001) %MON dynstat_salt_max             =   3.7606984203596E+01
(PID.TID 0000.0001) %MON dynstat_salt_min             =   3.1306805740390E+01
(PID.TID 0000.0001) %MON dynstat_salt_mean            =   3.5041146683193E+01
(PID.TID 0000.0001) %MON dynstat_salt_sd              =   3.0763021602096E-01
(PID.TID 0000.0001) %MON dynstat_salt_del2            =   3.6606416245153E-04
(PID.TID 0000.0001) %MON dynstat_sst_max              =   3.4044956975958E+01
(PID.TID 0000.0001) %MON dynstat_sst_min              =  -2.1721326508263E+00
(PID.TID 0000.0001) %MON dynstat_sst_mean             =   1.8038044676183E+01
(PID.TID 0000.0001) %MON dynstat_sst_sd               =   9.4676803329602E+00
(PID.TID 0000.0001) %MON dynstat_sst_del2             =   1.5951548207797E-02
(PID.TID 0000.0001) %MON dynstat_sss_max              =   3.7606984203596E+01
(PID.TID 0000.0001) %MON dynstat_sss_min              =   3.1306805740390E+01
(PID.TID 0000.0001) %MON dynstat_sss_mean             =   3.4899277155730E+01
(PID.TID 0000.0001) %MON dynstat_sss_sd               =   9.2863507325833E-01
(PID.TID 0000.0001) %MON dynstat_sss_del2             =   2.5784922049990E-03
(PID.TID 0000.0001) %MON forcing_qnet_max             =   2.9232183837891E+02
(PID.TID 0000.0001) %MON forcing_qnet_min             =  -2.0245199584961E+02
(PID.TID 0000.0001) %MON forcing_qnet_mean            =   1.8919615805366E+01
(PID.TID 0000.0001) %MON forcing_qnet_sd              =   7.9260067725484E+01
(PID.TID 0000.0001) %MON forcing_qnet_del2            =   2.8099564432031E-01
(PID.TID 0000.0001) %MON forcing_qsw_max              =   0.0000000000000E+00
(PID.TID 0000.0001) %MON forcing_qsw_min              =   0.0000000000000E+00
(PID.TID 0000.0001) %MON forcing_qsw_mean             =   0.0000000000000E+00
(PID.TID 0000.0001) %MON forcing_qsw_sd               =   0.0000000000000E+00
(PID.TID 0000.0001) %MON forcing_qsw_del2             =   0.0000000000000E+00
(PID.TID 0000.0001) %MON forcing_empmr_max            =   6.6865915471226E-05
(PID.TID 0000.0001) %MON forcing_empmr_min            =  -1.5018765964214E-04
(PID.TID 0000.0001) %MON forcing_empmr_mean           =   7.7320599494484E-09
(PID.TID 0000.0001) %MON forcing_empmr_sd             =   2.3858729798697E-05
(PID.TID 0000.0001) %MON forcing_empmr_del2           =   1.1192342175733E-07
(PID.TID 0000.0001) %MON forcing_fu_max               =   3.8828964531422E-01
(PID.TID 0000.0001) %MON forcing_fu_min               =  -3.6944159865379E-01
(PID.TID 0000.0001) %MON forcing_fu_mean              =   2.7492052631103E-02
(PID.TID 0000.0001) %MON forcing_fu_sd                =   1.0664207113026E-01
(PID.TID 0000.0001) %MON forcing_fu_del2              =   3.2130925468105E-04
(PID.TID 0000.0001) %MON forcing_fv_max               =   4.1021230816841E-01
(PID.TID 0000.0001) %MON forcing_fv_min               =  -1.7711757868528E-01
(PID.TID 0000.0001) %MON forcing_fv_mean              =   1.7783914907977E-03
(PID.TID 0000.0001) %MON forcing_fv_sd                =   4.7777590547755E-02
(PID.TID 0000.0001) %MON forcing_fv_del2              =   2.2478706842412E-04
(PID.TID 0000.0001) %MON trAdv_CFL_u_max              =   6.6835737865754E-02
(PID.TID 0000.0001) %MON trAdv_CFL_v_max              =   6.0491286903423E-02
(PID.TID 0000.0001) %MON trAdv_CFL_w_max              =   4.9424470457149E-02
(PID.TID 0000.0001) %MON advcfl_uvel_max              =   6.6829027839461E-02
(PID.TID 0000.0001) %MON advcfl_vvel_max              =   6.0613195630309E-02
(PID.TID 0000.0001) %MON advcfl_wvel_max              =   4.9424470457149E-02
(PID.TID 0000.0001) %MON advcfl_W_hf_max              =   5.7980025217418E-02
(PID.TID 0000.0001) %MON pe_b_mean                    =   4.8179143596333E-04
(PID.TID 0000.0001) %MON ke_max                       =   1.4056699894218E-01
(PID.TID 0000.0001) %MON ke_mean                      =   1.3586719603453E-04
(PID.TID 0000.0001) %MON ke_vol                       =   1.2572502945428E+18
(PID.TID 0000.0001) %MON vort_r_min                   =  -1.2428951500596E-06
(PID.TID 0000.0001) %MON vort_r_max                   =   2.5599373900904E-06
(PID.TID 0000.0001) %MON vort_a_mean                  =  -2.3966255162188E-05
(PID.TID 0000.0001) %MON vort_a_sd                    =   7.3206853782391E-05
(PID.TID 0000.0001) %MON vort_p_mean                  =  -2.8692533918785E-05
(PID.TID 0000.0001) %MON vort_p_sd                    =   1.1861217429395E-04
(PID.TID 0000.0001) %MON surfExpan_theta_mean         =   3.2064761444303E-07
(PID.TID 0000.0001) %MON surfExpan_salt_mean          =  -1.6142983729732E-08
(PID.TID 0000.0001) // =======================================================
(PID.TID 0000.0001) // End MONITOR dynamic field statistics
(PID.TID 0000.0001) // =======================================================
(PID.TID 0000.0001) // =======================================================
(PID.TID 0000.0001) // Begin MONITOR ptracer field statistics
(PID.TID 0000.0001) // =======================================================
(PID.TID 0000.0001) %MON trcstat_ptracer01_max        =   2.2959436569439E+00
(PID.TID 0000.0001) %MON trcstat_ptracer01_min        =  -3.3415193220471E-01
(PID.TID 0000.0001) %MON trcstat_ptracer01_mean       =   9.8260530669146E-01
(PID.TID 0000.0001) %MON trcstat_ptracer01_sd         =   1.1022931545661E+00
(PID.TID 0000.0001) %MON trcstat_ptracer01_del2       =   1.8269971963977E-04
(PID.TID 0000.0001) %MON trcstat_ptracer02_max        =   2.4167752848534E+00
(PID.TID 0000.0001) %MON trcstat_ptracer02_min        =  -3.5080451047279E-01
(PID.TID 0000.0001) %MON trcstat_ptracer02_mean       =   1.0312348245577E+00
(PID.TID 0000.0001) %MON trcstat_ptracer02_sd         =   1.1566257352125E+00
(PID.TID 0000.0001) %MON trcstat_ptracer02_del2       =   1.8406057858437E-04
(PID.TID 0000.0001) %MON trcstat_ptracer03_max        =   2.4799510901281E-03
(PID.TID 0000.0001) %MON trcstat_ptracer03_min        =  -3.2866653002585E-04
(PID.TID 0000.0001) %MON trcstat_ptracer03_mean       =   9.6479892070164E-04
(PID.TID 0000.0001) %MON trcstat_ptracer03_sd         =   1.0872721816212E-03
(PID.TID 0000.0001) %MON trcstat_ptracer03_del2       =   3.5704915322746E-07
(PID.TID 0000.0001) %MON trcstat_ptracer04_max        =   6.4264426990642E-04
(PID.TID 0000.0001) %MON trcstat_ptracer04_min        =  -6.4075123482467E-07
(PID.TID 0000.0001) %MON trcstat_ptracer04_mean       =   1.1833403680805E-06
(PID.TID 0000.0001) %MON trcstat_ptracer04_sd         =   1.6343421969553E-05
(PID.TID 0000.0001) %MON trcstat_ptracer04_del2       =   4.5610906867132E-08
(PID.TID 0000.0001) %MON trcstat_ptracer05_max        =   3.7627882044369E-01
(PID.TID 0000.0001) %MON trcstat_ptracer05_min        =  -3.2656691899280E-02
(PID.TID 0000.0001) %MON trcstat_ptracer05_mean       =   8.4310674757225E-02
(PID.TID 0000.0001) %MON trcstat_ptracer05_sd         =   9.5380212689057E-02
(PID.TID 0000.0001) %MON trcstat_ptracer05_del2       =   5.6563998865725E-05
(PID.TID 0000.0001) %MON trcstat_ptracer06_max        =   3.8231482631228E-06
(PID.TID 0000.0001) %MON trcstat_ptracer06_min        =  -1.3176874923243E-12
(PID.TID 0000.0001) %MON trcstat_ptracer06_mean       =   7.6699057297836E-10
(PID.TID 0000.0001) %MON trcstat_ptracer06_sd         =   2.0899251084163E-08
(PID.TID 0000.0001) %MON trcstat_ptracer06_del2       =   1.4611677746159E-10
(PID.TID 0000.0001) %MON trcstat_ptracer07_max        =   3.7627882044369E-01
(PID.TID 0000.0001) %MON trcstat_ptracer07_min        =  -1.8524436910149E-02
(PID.TID 0000.0001) %MON trcstat_ptracer07_mean       =   7.8639862921607E-03
(PID.TID 0000.0001) %MON trcstat_ptracer07_sd         =   3.8346852951438E-02
(PID.TID 0000.0001) %MON trcstat_ptracer07_del2       =   1.1195717255241E-04
(PID.TID 0000.0001) %MON trcstat_ptracer08_max        =   2.3735890347730E+00
(PID.TID 0000.0001) %MON trcstat_ptracer08_min        =  -1.7416164055258E-01
(PID.TID 0000.0001) %MON trcstat_ptracer08_mean       =   7.1779230918726E-02
(PID.TID 0000.0001) %MON trcstat_ptracer08_sd         =   3.4792196473661E-01
(PID.TID 0000.0001) %MON trcstat_ptracer08_del2       =   9.4265973184777E-04
(PID.TID 0000.0001) %MON trcstat_ptracer09_max        =   2.2453037085362E+00
(PID.TID 0000.0001) %MON trcstat_ptracer09_min        =  -1.6539674621279E-01
(PID.TID 0000.0001) %MON trcstat_ptracer09_mean       =   6.5746513721126E-02
(PID.TID 0000.0001) %MON trcstat_ptracer09_sd         =   3.1796573410103E-01
(PID.TID 0000.0001) %MON trcstat_ptracer09_del2       =   8.7390401628048E-04
(PID.TID 0000.0001) // =======================================================
(PID.TID 0000.0001) // End MONITOR ptracer field statistics
(PID.TID 0000.0001) // =======================================================
 cg2d: Sum(rhs),rhsMax =  -9.32518702256857E-08  9.29608155387300E+00
 cg2d: Sum(rhs),rhsMax =  -9.32883352788849E-08  9.29247816276956E+00
 cg2d: Sum(rhs),rhsMax =  -9.33245232204172E-08  9.28884120452690E+00
 cg2d: Sum(rhs),rhsMax =  -9.33613577558390E-08  9.28516924951164E+00
 cg2d: Sum(rhs),rhsMax =  -9.33982562401070E-08  9.28146051649491E+00
 cg2d: Sum(rhs),rhsMax =  -9.34364479121541E-08  9.27771291851975E+00
 cg2d: Sum(rhs),rhsMax =  -9.34740143065937E-08  9.27392411497484E+00
 cg2d: Sum(rhs),rhsMax =  -9.35126251988549E-08  9.27009157616147E+00
 cg2d: Sum(rhs),rhsMax =  -9.35518329470142E-08  9.26621266064052E+00
 cg2d: Sum(rhs),rhsMax =  -9.35912964905583E-08  9.26228469753356E+00
 cg2d: Sum(rhs),rhsMax =  -9.36311082000429E-08  9.25830502540661E+00
 cg2d: Sum(rhs),rhsMax =  -9.36718080879473E-08  9.25427104022615E+00
 cg2d: Sum(rhs),rhsMax =  -9.37130835154676E-08  9.25018025806528E+00
 cg2d: Sum(rhs),rhsMax =  -9.37547639523473E-08  9.24603037476154E+00
 cg2d: Sum(rhs),rhsMax =  -9.37974888870485E-08  9.24181932462259E+00
 cg2d: Sum(rhs),rhsMax =  -9.38402919814507E-08  9.23754533703139E+00
 cg2d: Sum(rhs),rhsMax =  -9.38843172093584E-08  9.23320698439808E+00
 cg2d: Sum(rhs),rhsMax =  -9.39290814017113E-08  9.22880321317793E+00
 cg2d: Sum(rhs),rhsMax =  -9.39739734917566E-08  9.22433335164241E+00
 cg2d: Sum(rhs),rhsMax =  -9.40200521881707E-08  9.21979710173837E+00
 cg2d: Sum(rhs),rhsMax =  -9.40667135296280E-08  9.21519452384442E+00
 cg2d: Sum(rhs),rhsMax =  -9.41140712029664E-08  9.21052602027441E+00
 cg2d: Sum(rhs),rhsMax =  -9.41621181027585E-08  9.20579231856880E+00
 cg2d: Sum(rhs),rhsMax =  -9.42108115964402E-08  9.20099445172383E+00
 cg2d: Sum(rhs),rhsMax =  -9.42603506359774E-08  9.19613373409314E+00
 cg2d: Sum(rhs),rhsMax =  -9.43106570616692E-08  9.19121172891709E+00
 cg2d: Sum(rhs),rhsMax =  -9.43619582471911E-08  9.18623021276131E+00
 cg2d: Sum(rhs),rhsMax =  -9.44129254776271E-08  9.18119115032627E+00
 cg2d: Sum(rhs),rhsMax =  -9.44648874678933E-08  9.17609666859133E+00
 EXTERNAL_FIELDS_LOAD, it=   3600450 : Reading new data, i0,i1=    8    9 (prev=    7    8 )
 DIC_FIELDS_LOAD, it=   3600450 : Reading new data, i0,i1=    8    9 (prev=    7    8 )
 cg2d: Sum(rhs),rhsMax =  -9.45180929079470E-08  9.17094900539886E+00
 cg2d: Sum(rhs),rhsMax =  -9.45713196642828E-08  9.16576037761048E+00
 cg2d: Sum(rhs),rhsMax =  -9.46249869571147E-08  9.16053907873528E+00
 cg2d: Sum(rhs),rhsMax =  -9.46787679367844E-08  9.15529303788953E+00
 cg2d: Sum(rhs),rhsMax =  -9.47327123412833E-08  9.15002961005962E+00
 cg2d: Sum(rhs),rhsMax =  -9.47873814993727E-08  9.14475542293395E+00
 cg2d: Sum(rhs),rhsMax =  -9.48415888046839E-08  9.13947626776025E+00
 cg2d: Sum(rhs),rhsMax =  -9.48963148061921E-08  9.13419703804716E+00
 cg2d: Sum(rhs),rhsMax =  -9.49505718494947E-08  9.12892171232682E+00
 cg2d: Sum(rhs),rhsMax =  -9.50055820680973E-08  9.12365335338700E+00
 cg2d: Sum(rhs),rhsMax =  -9.50602441207593E-08  9.11839411243203E+00
 cg2d: Sum(rhs),rhsMax =  -9.51149274897034E-08  9.11314523538299E+00
 cg2d: Sum(rhs),rhsMax =  -9.51689713701853E-08  9.10790707134369E+00
 cg2d: Sum(rhs),rhsMax =  -9.52241663298992E-08  9.10267908920085E+00
 cg2d: Sum(rhs),rhsMax =  -9.52785583763216E-08  9.09745990818067E+00
 cg2d: Sum(rhs),rhsMax =  -9.53332346398383E-08  9.09224734512777E+00
 cg2d: Sum(rhs),rhsMax =  -9.53879322196372E-08  9.08703847736888E+00
 cg2d: Sum(rhs),rhsMax =  -9.54423811094784E-08  9.08182972075513E+00
 cg2d: Sum(rhs),rhsMax =  -9.54974623823546E-08  9.07661692347198E+00
 cg2d: Sum(rhs),rhsMax =  -9.55527141854873E-08  9.07139547821490E+00
 cg2d: Sum(rhs),rhsMax =  -9.56078878289190E-08  9.06616045270155E+00
 cg2d: Sum(rhs),rhsMax =  -9.56632462134621E-08  9.06090673305150E+00
 cg2d: Sum(rhs),rhsMax =  -9.57190593453561E-08  9.05562917574046E+00
 cg2d: Sum(rhs),rhsMax =  -9.57753982788745E-08  9.05032276301453E+00
 cg2d: Sum(rhs),rhsMax =  -9.58323127520089E-08  9.04498274779792E+00
 cg2d: Sum(rhs),rhsMax =  -9.58890566948867E-08  9.03960479010611E+00
 cg2d: Sum(rhs),rhsMax =  -9.59469090844323E-08  9.03418508103277E+00
 cg2d: Sum(rhs),rhsMax =  -9.60046975251316E-08  9.02872044807494E+00
 cg2d: Sum(rhs),rhsMax =  -9.60634949365158E-08  9.02320843719522E+00
 cg2d: Sum(rhs),rhsMax =  -9.61234505325592E-08  9.01764736350553E+00
 cg2d: Sum(rhs),rhsMax =  -9.61829158541150E-08  9.01203632711249E+00
 cg2d: Sum(rhs),rhsMax =  -9.62436175200310E-08  9.00637519234014E+00
(PID.TID 0000.0001) // =======================================================
(PID.TID 0000.0001) // Begin MONITOR dynamic field statistics
(PID.TID 0000.0001) // =======================================================
(PID.TID 0000.0001) %MON time_tsnumber                =               3600482
(PID.TID 0000.0001) %MON time_secondsf                =   1.5554082240000E+11
(PID.TID 0000.0001) %MON dynstat_eta_max              =   8.4601386973981E-01
(PID.TID 0000.0001) %MON dynstat_eta_min              =  -1.5879668831559E+00
(PID.TID 0000.0001) %MON dynstat_eta_mean             =   3.0203021550471E-11
(PID.TID 0000.0001) %MON dynstat_eta_sd               =   6.1132895878338E-01
(PID.TID 0000.0001) %MON dynstat_eta_del2             =   1.2083794574658E-03
(PID.TID 0000.0001) %MON dynstat_uvel_max             =   3.7508047222803E-01
(PID.TID 0000.0001) %MON dynstat_uvel_min             =  -5.2210722421246E-01
(PID.TID 0000.0001) %MON dynstat_uvel_mean            =   1.7126111804618E-03
(PID.TID 0000.0001) %MON dynstat_uvel_sd              =   1.4745460539754E-02
(PID.TID 0000.0001) %MON dynstat_uvel_del2            =   6.6809022012218E-05
(PID.TID 0000.0001) %MON dynstat_vvel_max             =   4.2039006662348E-01
(PID.TID 0000.0001) %MON dynstat_vvel_min             =  -3.3920818962578E-01
(PID.TID 0000.0001) %MON dynstat_vvel_mean            =   7.1410885810286E-05
(PID.TID 0000.0001) %MON dynstat_vvel_sd              =   8.7144376741373E-03
(PID.TID 0000.0001) %MON dynstat_vvel_del2            =   5.1330235582903E-05
(PID.TID 0000.0001) %MON dynstat_wvel_max             =   6.3601917339699E-05
(PID.TID 0000.0001) %MON dynstat_wvel_min             =  -5.9695092218358E-05
(PID.TID 0000.0001) %MON dynstat_wvel_mean            =   2.1544141480358E-23
(PID.TID 0000.0001) %MON dynstat_wvel_sd              =   2.5291247630413E-06
(PID.TID 0000.0001) %MON dynstat_wvel_del2            =   1.3631973928545E-08
(PID.TID 0000.0001) %MON dynstat_theta_max            =   3.3235435771099E+01
(PID.TID 0000.0001) %MON dynstat_theta_min            =  -2.3429946129215E+00
(PID.TID 0000.0001) %MON dynstat_theta_mean           =   4.0621799745673E+00
(PID.TID 0000.0001) %MON dynstat_theta_sd             =   4.2321367871911E+00
(PID.TID 0000.0001) %MON dynstat_theta_del2           =   2.6700223736082E-03
(PID.TID 0000.0001) %MON dynstat_salt_max             =   3.7598510624220E+01
(PID.TID 0000.0001) %MON dynstat_salt_min             =   3.1360023061545E+01
(PID.TID 0000.0001) %MON dynstat_salt_mean            =   3.5041140673646E+01
(PID.TID 0000.0001) %MON dynstat_salt_sd              =   3.0757307878577E-01
(PID.TID 0000.0001) %MON dynstat_salt_del2            =   3.6598270855944E-04
(PID.TID 0000.0001) %MON dynstat_sst_max              =   3.3235435771099E+01
(PID.TID 0000.0001) %MON dynstat_sst_min              =  -2.1978004727429E+00
(PID.TID 0000.0001) %MON dynstat_sst_mean             =   1.7978241068646E+01
(PID.TID 0000.0001) %MON dynstat_sst_sd               =   9.5519709350524E+00
(PID.TID 0000.0001) %MON dynstat_sst_del2             =   1.6010060498197E-02
(PID.TID 0000.0001) %MON dynstat_sss_max              =   3.7598510624220E+01
(PID.TID 0000.0001) %MON dynstat_sss_min              =   3.1360023061545E+01
(PID.TID 0000.0001) %MON dynstat_sss_mean             =   3.4900992302547E+01
(PID.TID 0000.0001) %MON dynstat_sss_sd               =   9.2906769286717E-01
(PID.TID 0000.0001) %MON dynstat_sss_del2             =   2.5879957243695E-03
(PID.TID 0000.0001) %MON forcing_qnet_max             =   3.1823309529622E+02
(PID.TID 0000.0001) %MON forcing_qnet_min             =  -1.3675579643250E+02
(PID.TID 0000.0001) %MON forcing_qnet_mean            =   5.2555449321600E+00
(PID.TID 0000.0001) %MON forcing_qnet_sd              =   5.3403125115374E+01
(PID.TID 0000.0001) %MON forcing_qnet_del2            =   2.7193696300016E-01
(PID.TID 0000.0001) %MON forcing_qsw_max              =   0.0000000000000E+00
(PID.TID 0000.0001) %MON forcing_qsw_min              =   0.0000000000000E+00
(PID.TID 0000.0001) %MON forcing_qsw_mean             =   0.0000000000000E+00
(PID.TID 0000.0001) %MON forcing_qsw_sd               =   0.0000000000000E+00
(PID.TID 0000.0001) %MON forcing_qsw_del2             =   0.0000000000000E+00
(PID.TID 0000.0001) %MON forcing_empmr_max            =   6.6865915471226E-05
(PID.TID 0000.0001) %MON forcing_empmr_min            =  -1.5018765964214E-04
(PID.TID 0000.0001) %MON forcing_empmr_mean           =   7.7320599494484E-09
(PID.TID 0000.0001) %MON forcing_empmr_sd             =   2.3858729798697E-05
(PID.TID 0000.0001) %MON forcing_empmr_del2           =   1.1192342175733E-07
(PID.TID 0000.0001) %MON forcing_fu_max               =   3.7751012742519E-01
(PID.TID 0000.0001) %MON forcing_fu_min               =  -3.6188233594100E-01
(PID.TID 0000.0001) %MON forcing_fu_mean              =   2.8785877267733E-02
(PID.TID 0000.0001) %MON forcing_fu_sd                =   1.0485302004539E-01
(PID.TID 0000.0001) %MON forcing_fu_del2              =   3.1254151743288E-04
(PID.TID 0000.0001) %MON forcing_fv_max               =   2.9812060842911E-01
(PID.TID 0000.0001) %MON forcing_fv_min               =  -1.5616236204902E-01
(PID.TID 0000.0001) %MON forcing_fv_mean              =  -1.0072717011363E-04
(PID.TID 0000.0001) %MON forcing_fv_sd                =   4.3285912616385E-02
(PID.TID 0000.0001) %MON forcing_fv_del2              =   2.0186238321330E-04
(PID.TID 0000.0001) %MON trAdv_CFL_u_max              =   7.2161996917741E-02
(PID.TID 0000.0001) %MON trAdv_CFL_v_max              =   5.8103365142459E-02
(PID.TID 0000.0001) %MON trAdv_CFL_w_max              =   5.1113531433625E-02
(PID.TID 0000.0001) %MON advcfl_uvel_max              =   7.2154752157496E-02
(PID.TID 0000.0001) %MON advcfl_vvel_max              =   5.8080033919193E-02
(PID.TID 0000.0001) %MON advcfl_wvel_max              =   5.1113531433625E-02
(PID.TID 0000.0001) %MON advcfl_W_hf_max              =   6.0095792975152E-02
(PID.TID 0000.0001) %MON pe_b_mean                    =   4.8163515334162E-04
(PID.TID 0000.0001) %MON ke_max                       =   1.3832031479961E-01
(PID.TID 0000.0001) %MON ke_mean                      =   1.3715471658223E-04
(PID.TID 0000.0001) %MON ke_vol                       =   1.2572502945428E+18
(PID.TID 0000.0001) %MON vort_r_min                   =  -1.4704245014004E-06
(PID.TID 0000.0001) %MON vort_r_max                   =   2.3909635564248E-06
(PID.TID 0000.0001) %MON vort_a_mean                  =  -2.3966255162188E-05
(PID.TID 0000.0001) %MON vort_a_sd                    =   7.3206853815719E-05
(PID.TID 0000.0001) %MON vort_p_mean                  =  -2.8692533918785E-05
(PID.TID 0000.0001) %MON vort_p_sd                    =   1.1861218542773E-04
(PID.TID 0000.0001) %MON surfExpan_theta_mean         =   3.3361796042464E-07
(PID.TID 0000.0001) %MON surfExpan_salt_mean          =  -1.5614265533263E-09
(PID.TID 0000.0001) // =======================================================
(PID.TID 0000.0001) // End MONITOR dynamic field statistics
(PID.TID 0000.0001) // =======================================================
(PID.TID 0000.0001) // =======================================================
(PID.TID 0000.0001) // Begin MONITOR ptracer field statistics
(PID.TID 0000.0001) // =======================================================
(PID.TID 0000.0001) %MON trcstat_ptracer01_max        =   2.2980843667552E+00
(PID.TID 0000.0001) %MON trcstat_ptracer01_min        =  -1.9265024429190E-01
(PID.TID 0000.0001) %MON trcstat_ptracer01_mean       =   9.8235627483577E-01
(PID.TID 0000.0001) %MON trcstat_ptracer01_sd         =   1.0997195531991E+00
(PID.TID 0000.0001) %MON trcstat_ptracer01_del2       =   1.8088421811592E-04
(PID.TID 0000.0001) %MON trcstat_ptracer02_max        =   2.4193033393866E+00
(PID.TID 0000.0001) %MON trcstat_ptracer02_min        =  -2.0225276765498E-01
(PID.TID 0000.0001) %MON trcstat_ptracer02_mean       =   1.0312391386547E+00
(PID.TID 0000.0001) %MON trcstat_ptracer02_sd         =   1.1542247800089E+00
(PID.TID 0000.0001) %MON trcstat_ptracer02_del2       =   1.8197920951755E-04
(PID.TID 0000.0001) %MON trcstat_ptracer03_max        =   2.4851778777129E-03
(PID.TID 0000.0001) %MON trcstat_ptracer03_min        =  -1.8939504671004E-04
(PID.TID 0000.0001) %MON trcstat_ptracer03_mean       =   9.6457512043719E-04
(PID.TID 0000.0001) %MON trcstat_ptracer03_sd         =   1.0845032349993E-03
(PID.TID 0000.0001) %MON trcstat_ptracer03_del2       =   3.4605797156197E-07
(PID.TID 0000.0001) %MON trcstat_ptracer04_max        =   7.2074166304032E-04
(PID.TID 0000.0001) %MON trcstat_ptracer04_min        =  -4.9631631194350E-07
(PID.TID 0000.0001) %MON trcstat_ptracer04_mean       =   1.4059402096402E-06
(PID.TID 0000.0001) %MON trcstat_ptracer04_sd         =   1.8974367497163E-05
(PID.TID 0000.0001) %MON trcstat_ptracer04_del2       =   5.1950706107049E-08
(PID.TID 0000.0001) %MON trcstat_ptracer05_max        =   3.7439424947074E-01
(PID.TID 0000.0001) %MON trcstat_ptracer05_min        =  -1.8447843798955E-02
(PID.TID 0000.0001) %MON trcstat_ptracer05_mean       =   8.4673463497478E-02
(PID.TID 0000.0001) %MON trcstat_ptracer05_sd         =   9.5617228150086E-02
(PID.TID 0000.0001) %MON trcstat_ptracer05_del2       =   5.5491680666571E-05
(PID.TID 0000.0001) %MON trcstat_ptracer06_max        =   3.9283441785518E-06
(PID.TID 0000.0001) %MON trcstat_ptracer06_min        =  -6.7676661369416E-12
(PID.TID 0000.0001) %MON trcstat_ptracer06_mean       =   8.9623400007996E-10
(PID.TID 0000.0001) %MON trcstat_ptracer06_sd         =   2.3342473593889E-08
(PID.TID 0000.0001) %MON trcstat_ptracer06_del2       =   1.5128985573194E-10
(PID.TID 0000.0001) %MON trcstat_ptracer07_max        =   3.7439424947074E-01
(PID.TID 0000.0001) %MON trcstat_ptracer07_min        =  -1.0868912709793E-02
(PID.TID 0000.0001) %MON trcstat_ptracer07_mean       =   8.7403012422387E-03
(PID.TID 0000.0001) %MON trcstat_ptracer07_sd         =   4.0385723470663E-02
(PID.TID 0000.0001) %MON trcstat_ptracer07_del2       =   1.0948063544033E-04
(PID.TID 0000.0001) %MON trcstat_ptracer08_max        =   2.3793007219865E+00
(PID.TID 0000.0001) %MON trcstat_ptracer08_min        =  -1.0303413635627E-01
(PID.TID 0000.0001) %MON trcstat_ptracer08_mean       =   7.9519119989115E-02
(PID.TID 0000.0001) %MON trcstat_ptracer08_sd         =   3.6525883344401E-01
(PID.TID 0000.0001) %MON trcstat_ptracer08_del2       =   9.2064377217078E-04
(PID.TID 0000.0001) %MON trcstat_ptracer09_max        =   2.2493210357820E+00
(PID.TID 0000.0001) %MON trcstat_ptracer09_min        =  -9.7832879850342E-02
(PID.TID 0000.0001) %MON trcstat_ptracer09_mean       =   7.2918181808743E-02
(PID.TID 0000.0001) %MON trcstat_ptracer09_sd         =   3.3424210819566E-01
(PID.TID 0000.0001) %MON trcstat_ptracer09_del2       =   8.5549811573262E-04
(PID.TID 0000.0001) // =======================================================
(PID.TID 0000.0001) // End MONITOR ptracer field statistics
(PID.TID 0000.0001) // =======================================================
 cg2d: Sum(rhs),rhsMax =  -9.63047241953063E-08  9.00066454100738E+00
 cg2d: Sum(rhs),rhsMax =  -9.63663566722062E-08  8.99490560644289E+00
 cg2d: Sum(rhs),rhsMax =  -9.64286215321408E-08  8.98910019830229E+00
 cg2d: Sum(rhs),rhsMax =  -9.64914832479735E-08  8.98325060608421E+00
 cg2d: Sum(rhs),rhsMax =  -9.65549631359863E-08  8.97735949860674E+00
 cg2d: Sum(rhs),rhsMax =  -9.66191180395981E-08  8.97142982445055E+00
 cg2d: Sum(rhs),rhsMax =  -9.66832942594920E-08  8.96546471599943E+00
 cg2d: Sum(rhs),rhsMax =  -9.67482520763951E-08  8.95946740124540E+00
 cg2d: Sum(rhs),rhsMax =  -9.68132098932983E-08  8.95344112713886E+00
 cg2d: Sum(rhs),rhsMax =  -9.68790274669118E-08  8.94738909112794E+00
 cg2d: Sum(rhs),rhsMax =  -9.69447810916790E-08  8.94131438207753E+00
 cg2d: Sum(rhs),rhsMax =  -9.70111884157632E-08  8.93521991327319E+00
 cg2d: Sum(rhs),rhsMax =  -9.70773115227530E-08  8.92910833888471E+00
 cg2d: Sum(rhs),rhsMax =  -9.71445075492738E-08  8.92298199747039E+00
 cg2d: Sum(rhs),rhsMax =  -9.72113554098541E-08  8.91684290726808E+00
 cg2d: Sum(rhs),rhsMax =  -9.72787574937684E-08  8.91069264633776E+00
 cg2d: Sum(rhs),rhsMax =  -9.73459535202892E-08  8.90453228797114E+00
 cg2d: Sum(rhs),rhsMax =  -9.74135971887335E-08  8.89836249714105E+00
 cg2d: Sum(rhs),rhsMax =  -9.74817027099562E-08  8.89218368115518E+00
 cg2d: Sum(rhs),rhsMax =  -9.75496519117769E-08  8.88599608996445E+00
 cg2d: Sum(rhs),rhsMax =  -9.76179350686834E-08  8.87979980032782E+00
 cg2d: Sum(rhs),rhsMax =  -9.76860476953334E-08  8.87359466021019E+00
 cg2d: Sum(rhs),rhsMax =  -9.77549490244201E-08  8.86737992136571E+00
 cg2d: Sum(rhs),rhsMax =  -9.78237792992331E-08  8.86115449881272E+00
 cg2d: Sum(rhs),rhsMax =  -9.78925882577641E-08  8.85491714939279E+00
 cg2d: Sum(rhs),rhsMax =  -9.79620651264668E-08  8.84866650814923E+00
 cg2d: Sum(rhs),rhsMax =  -9.80318830556826E-08  8.84239908862083E+00
 cg2d: Sum(rhs),rhsMax =  -9.81016583523342E-08  8.83611205511795E+00
 EXTERNAL_FIELDS_LOAD, it=   3600510 : Reading new data, i0,i1=    9   10 (prev=    8    9 )
 DIC_FIELDS_LOAD, it=   3600510 : Reading new data, i0,i1=    9   10 (prev=    8    9 )
 cg2d: Sum(rhs),rhsMax =  -9.81721868242857E-08  8.82980306034887E+00
 cg2d: Sum(rhs),rhsMax =  -9.82427721396562E-08  8.82347164349139E+00
 cg2d: Sum(rhs),rhsMax =  -9.83135990395567E-08  8.81711735596894E+00
 cg2d: Sum(rhs),rhsMax =  -9.83851720093298E-08  8.81074020360017E+00
 cg2d: Sum(rhs),rhsMax =  -9.84564962891454E-08  8.80434063629974E+00
 cg2d: Sum(rhs),rhsMax =  -9.85286376931072E-08  8.79791959804717E+00
 cg2d: Sum(rhs),rhsMax =  -9.86011414738641E-08  8.79147850051498E+00
 cg2d: Sum(rhs),rhsMax =  -9.86734960406466E-08  8.78501923806664E+00
 cg2d: Sum(rhs),rhsMax =  -9.87464900958912E-08  8.77854412431977E+00
 cg2d: Sum(rhs),rhsMax =  -9.88197470519481E-08  8.77205585109022E+00
 cg2d: Sum(rhs),rhsMax =  -9.88934729662105E-08  8.76555740298602E+00
 cg2d: Sum(rhs),rhsMax =  -9.89669146633787E-08  8.75905198910442E+00
 cg2d: Sum(rhs),rhsMax =  -9.90407258427695E-08  8.75254295465281E+00
 cg2d: Sum(rhs),rhsMax =  -9.91145014950234E-08  8.74603368964057E+00
 cg2d: Sum(rhs),rhsMax =  -9.91886466295000E-08  8.73952755244439E+00
 cg2d: Sum(rhs),rhsMax =  -9.92623157003436E-08  8.73302782624689E+00
 cg2d: Sum(rhs),rhsMax =  -9.93363400425551E-08  8.72653766294564E+00
 cg2d: Sum(rhs),rhsMax =  -9.94104141227581E-08  8.72006002219781E+00
 cg2d: Sum(rhs),rhsMax =  -9.94844668866790E-08  8.71359759621992E+00
 cg2d: Sum(rhs),rhsMax =  -9.95583775420528E-08  8.70715278372291E+00
 cg2d: Sum(rhs),rhsMax =  -9.96322597757171E-08  8.70072771032166E+00
 cg2d: Sum(rhs),rhsMax =  -9.97059714791249E-08  8.69432422374462E+00
 cg2d: Sum(rhs),rhsMax =  -9.97792923840279E-08  8.68794392220557E+00
 cg2d: Sum(rhs),rhsMax =  -9.98527127649140E-08  8.68159287495532E+00
 cg2d: Sum(rhs),rhsMax =  -9.99256144496030E-08  8.67527594836007E+00
 cg2d: Sum(rhs),rhsMax =  -9.99983740257449E-08  8.66899648662334E+00
 cg2d: Sum(rhs),rhsMax =  -1.00070764119664E-07  8.66275674813775E+00
 cg2d: Sum(rhs),rhsMax =  -1.00142791836788E-07  8.65655808426570E+00
 cg2d: Sum(rhs),rhsMax =  -1.00214123222031E-07  8.65040095427649E+00
 cg2d: Sum(rhs),rhsMax =  -1.00285419080137E-07  8.64428511771589E+00
 cg2d: Sum(rhs),rhsMax =  -1.00356203347474E-07  8.63820779072895E+00
 cg2d: Sum(rhs),rhsMax =  -1.00426881033400E-07  8.63216610266613E+00
(PID.TID 0000.0001) // =======================================================
(PID.TID 0000.0001) // Begin MONITOR dynamic field statistics
(PID.TID 0000.0001) // =======================================================
(PID.TID 0000.0001) %MON time_tsnumber                =               3600542
(PID.TID 0000.0001) %MON time_secondsf                =   1.5554341440000E+11
(PID.TID 0000.0001) %MON dynstat_eta_max              =   8.4137210552545E-01
(PID.TID 0000.0001) %MON dynstat_eta_min              =  -1.5949788239301E+00
(PID.TID 0000.0001) %MON dynstat_eta_mean             =   3.0206439037725E-11
(PID.TID 0000.0001) %MON dynstat_eta_sd               =   6.1192464747651E-01
(PID.TID 0000.0001) %MON dynstat_eta_del2             =   1.2083140392954E-03
(PID.TID 0000.0001) %MON dynstat_uvel_max             =   3.9069761191521E-01
(PID.TID 0000.0001) %MON dynstat_uvel_min             =  -4.9395120186649E-01
(PID.TID 0000.0001) %MON dynstat_uvel_mean            =   1.7413092991175E-03
(PID.TID 0000.0001) %MON dynstat_uvel_sd              =   1.4610096201180E-02
(PID.TID 0000.0001) %MON dynstat_uvel_del2            =   6.8356619859556E-05
(PID.TID 0000.0001) %MON dynstat_vvel_max             =   4.6838286841510E-01
(PID.TID 0000.0001) %MON dynstat_vvel_min             =  -3.9043957408945E-01
(PID.TID 0000.0001) %MON dynstat_vvel_mean            =   5.8804502754010E-06
(PID.TID 0000.0001) %MON dynstat_vvel_sd              =   8.7822800435682E-03
(PID.TID 0000.0001) %MON dynstat_vvel_del2            =   5.4067299037786E-05
(PID.TID 0000.0001) %MON dynstat_wvel_max             =   6.4305643940284E-05
(PID.TID 0000.0001) %MON dynstat_wvel_min             =  -6.0311557799330E-05
(PID.TID 0000.0001) %MON dynstat_wvel_mean            =  -2.4929649427271E-22
(PID.TID 0000.0001) %MON dynstat_wvel_sd              =   2.4815959049417E-06
(PID.TID 0000.0001) %MON dynstat_wvel_del2            =   1.3681383360849E-08
(PID.TID 0000.0001) %MON dynstat_theta_max            =   3.2551651161302E+01
(PID.TID 0000.0001) %MON dynstat_theta_min            =  -2.3422829916288E+00
(PID.TID 0000.0001) %MON dynstat_theta_mean           =   4.0626938488858E+00
(PID.TID 0000.0001) %MON dynstat_theta_sd             =   4.2361005163468E+00
(PID.TID 0000.0001) %MON dynstat_theta_del2           =   2.6474404002307E-03
(PID.TID 0000.0001) %MON dynstat_salt_max             =   3.7610392571856E+01
(PID.TID 0000.0001) %MON dynstat_salt_min             =   3.1383782693579E+01
(PID.TID 0000.0001) %MON dynstat_salt_mean            =   3.5041115494881E+01
(PID.TID 0000.0001) %MON dynstat_salt_sd              =   3.0763487341018E-01
(PID.TID 0000.0001) %MON dynstat_salt_del2            =   3.6512966826248E-04
(PID.TID 0000.0001) %MON dynstat_sst_max              =   3.2551651161302E+01
(PID.TID 0000.0001) %MON dynstat_sst_min              =  -2.2198758212248E+00
(PID.TID 0000.0001) %MON dynstat_sst_mean             =   1.7905974778219E+01
(PID.TID 0000.0001) %MON dynstat_sst_sd               =   9.6670555877023E+00
(PID.TID 0000.0001) %MON dynstat_sst_del2             =   1.5912483308148E-02
(PID.TID 0000.0001) %MON dynstat_sss_max              =   3.7608922337739E+01
(PID.TID 0000.0001) %MON dynstat_sss_min              =   3.1383782693579E+01
(PID.TID 0000.0001) %MON dynstat_sss_mean             =   3.4902504721844E+01
(PID.TID 0000.0001) %MON dynstat_sss_sd               =   9.3326429709887E-01
(PID.TID 0000.0001) %MON dynstat_sss_del2             =   2.6096051598374E-03
(PID.TID 0000.0001) %MON forcing_qnet_max             =   3.3990535481771E+02
(PID.TID 0000.0001) %MON forcing_qnet_min             =  -1.2273347015381E+02
(PID.TID 0000.0001) %MON forcing_qnet_mean            =  -7.3088019132986E+00
(PID.TID 0000.0001) %MON forcing_qnet_sd              =   4.6726287014911E+01
(PID.TID 0000.0001) %MON forcing_qnet_del2            =   2.5710053922216E-01
(PID.TID 0000.0001) %MON forcing_qsw_max              =   0.0000000000000E+00
(PID.TID 0000.0001) %MON forcing_qsw_min              =   0.0000000000000E+00
(PID.TID 0000.0001) %MON forcing_qsw_mean             =   0.0000000000000E+00
(PID.TID 0000.0001) %MON forcing_qsw_sd               =   0.0000000000000E+00
(PID.TID 0000.0001) %MON forcing_qsw_del2             =   0.0000000000000E+00
(PID.TID 0000.0001) %MON forcing_empmr_max            =   6.6865915471226E-05
(PID.TID 0000.0001) %MON forcing_empmr_min            =  -1.5018765964214E-04
(PID.TID 0000.0001) %MON forcing_empmr_mean           =   7.7320599494484E-09
(PID.TID 0000.0001) %MON forcing_empmr_sd             =   2.3858729798697E-05
(PID.TID 0000.0001) %MON forcing_empmr_del2           =   1.1192342175733E-07
(PID.TID 0000.0001) %MON forcing_fu_max               =   3.4556107173363E-01
(PID.TID 0000.0001) %MON forcing_fu_min               =  -2.9593117187421E-01
(PID.TID 0000.0001) %MON forcing_fu_mean              =   2.8624498942544E-02
(PID.TID 0000.0001) %MON forcing_fu_sd                =   1.0084721899464E-01
(PID.TID 0000.0001) %MON forcing_fu_del2              =   2.9052312858942E-04
(PID.TID 0000.0001) %MON forcing_fv_max               =   1.8081457515558E-01
(PID.TID 0000.0001) %MON forcing_fv_min               =  -1.3829113257428E-01
(PID.TID 0000.0001) %MON forcing_fv_mean              =  -3.6328830353754E-03
(PID.TID 0000.0001) %MON forcing_fv_sd                =   3.9231697897804E-02
(PID.TID 0000.0001) %MON forcing_fv_del2              =   1.7377345923903E-04
(PID.TID 0000.0001) %MON trAdv_CFL_u_max              =   6.8270469079163E-02
(PID.TID 0000.0001) %MON trAdv_CFL_v_max              =   6.4736593441847E-02
(PID.TID 0000.0001) %MON trAdv_CFL_w_max              =   5.5377053113127E-02
(PID.TID 0000.0001) %MON advcfl_uvel_max              =   6.8263615011905E-02
(PID.TID 0000.0001) %MON advcfl_vvel_max              =   6.4710598666650E-02
(PID.TID 0000.0001) %MON advcfl_wvel_max              =   5.5377053113127E-02
(PID.TID 0000.0001) %MON advcfl_W_hf_max              =   6.5649500440588E-02
(PID.TID 0000.0001) %MON pe_b_mean                    =   4.8257423660655E-04
(PID.TID 0000.0001) %MON ke_max                       =   1.3446482307108E-01
(PID.TID 0000.0001) %MON ke_mean                      =   1.3589905108224E-04
(PID.TID 0000.0001) %MON ke_vol                       =   1.2572502945428E+18
(PID.TID 0000.0001) %MON vort_r_min                   =  -1.9906641169618E-06
(PID.TID 0000.0001) %MON vort_r_max                   =   2.1341822903335E-06
(PID.TID 0000.0001) %MON vort_a_mean                  =  -2.3966255162188E-05
(PID.TID 0000.0001) %MON vort_a_sd                    =   7.3206861790908E-05
(PID.TID 0000.0001) %MON vort_p_mean                  =  -2.8692533918785E-05
(PID.TID 0000.0001) %MON vort_p_sd                    =   1.1861218529627E-04
(PID.TID 0000.0001) %MON surfExpan_theta_mean         =   2.4342487144958E-07
(PID.TID 0000.0001) %MON surfExpan_salt_mean          =   1.4179958694371E-08
(PID.TID 0000.0001) // =======================================================
(PID.TID 0000.0001) // End MONITOR dynamic field statistics
(PID.TID 0000.0001) // =======================================================
(PID.TID 0000.0001) // =======================================================
(PID.TID 0000.0001) // Begin MONITOR ptracer field statistics
(PID.TID 0000.0001) // =======================================================
(PID.TID 0000.0001) %MON trcstat_ptracer01_max        =   2.2995682910481E+00
(PID.TID 0000.0001) %MON trcstat_ptracer01_min        =  -8.2433836527981E-02
(PID.TID 0000.0001) %MON trcstat_ptracer01_mean       =   9.8213049728439E-01
(PID.TID 0000.0001) %MON trcstat_ptracer01_sd         =   1.0973096587967E+00
(PID.TID 0000.0001) %MON trcstat_ptracer01_del2       =   1.7793823782566E-04
(PID.TID 0000.0001) %MON trcstat_ptracer02_max        =   2.4144569253480E+00
(PID.TID 0000.0001) %MON trcstat_ptracer02_min        =  -8.6736691039059E-02
(PID.TID 0000.0001) %MON trcstat_ptracer02_mean       =   1.0312432263125E+00
(PID.TID 0000.0001) %MON trcstat_ptracer02_sd         =   1.1519664171477E+00
(PID.TID 0000.0001) %MON trcstat_ptracer02_del2       =   1.7984453759954E-04
(PID.TID 0000.0001) %MON trcstat_ptracer03_max        =   2.4864797304675E-03
(PID.TID 0000.0001) %MON trcstat_ptracer03_min        =  -7.7472341215528E-05
(PID.TID 0000.0001) %MON trcstat_ptracer03_mean       =   9.6434711664659E-04
(PID.TID 0000.0001) %MON trcstat_ptracer03_sd         =   1.0820039429234E-03
(PID.TID 0000.0001) %MON trcstat_ptracer03_del2       =   3.2595960736867E-07
(PID.TID 0000.0001) %MON trcstat_ptracer04_max        =   7.8782215024669E-04
(PID.TID 0000.0001) %MON trcstat_ptracer04_min        =  -4.3483374528867E-07
(PID.TID 0000.0001) %MON trcstat_ptracer04_mean       =   1.6335950224298E-06
(PID.TID 0000.0001) %MON trcstat_ptracer04_sd         =   2.1460366855387E-05
(PID.TID 0000.0001) %MON trcstat_ptracer04_del2       =   5.7072970870762E-08
(PID.TID 0000.0001) %MON trcstat_ptracer05_max        =   3.7477491064694E-01
(PID.TID 0000.0001) %MON trcstat_ptracer05_min        =  -7.5895942307450E-03
(PID.TID 0000.0001) %MON trcstat_ptracer05_mean       =   8.4925241910845E-02
(PID.TID 0000.0001) %MON trcstat_ptracer05_sd         =   9.5733739204351E-02
(PID.TID 0000.0001) %MON trcstat_ptracer05_del2       =   5.3628620757255E-05
(PID.TID 0000.0001) %MON trcstat_ptracer06_max        =   2.8343001910806E-06
(PID.TID 0000.0001) %MON trcstat_ptracer06_min        =  -1.3123123105216E-11
(PID.TID 0000.0001) %MON trcstat_ptracer06_mean       =   9.4300659513013E-10
(PID.TID 0000.0001) %MON trcstat_ptracer06_sd         =   2.2680133099334E-08
(PID.TID 0000.0001) %MON trcstat_ptracer06_del2       =   1.2417601565716E-10
(PID.TID 0000.0001) %MON trcstat_ptracer07_max        =   3.7477491064694E-01
(PID.TID 0000.0001) %MON trcstat_ptracer07_min        =  -7.6013409372692E-03
(PID.TID 0000.0001) %MON trcstat_ptracer07_mean       =   9.2947961074975E-03
(PID.TID 0000.0001) %MON trcstat_ptracer07_sd         =   4.1463421726768E-02
(PID.TID 0000.0001) %MON trcstat_ptracer07_del2       =   1.0326848520430E-04
(PID.TID 0000.0001) %MON trcstat_ptracer08_max        =   2.3815881523535E+00
(PID.TID 0000.0001) %MON trcstat_ptracer08_min        =  -6.4124834209085E-02
(PID.TID 0000.0001) %MON trcstat_ptracer08_mean       =   8.4075631811858E-02
(PID.TID 0000.0001) %MON trcstat_ptracer08_sd         =   3.7262266166198E-01
(PID.TID 0000.0001) %MON trcstat_ptracer08_del2       =   8.5228422733524E-04
(PID.TID 0000.0001) %MON trcstat_ptracer09_max        =   2.2516114785670E+00
(PID.TID 0000.0001) %MON trcstat_ptracer09_min        =  -6.0977625568897E-02
(PID.TID 0000.0001) %MON trcstat_ptracer09_mean       =   7.7062097627420E-02
(PID.TID 0000.0001) %MON trcstat_ptracer09_sd         =   3.4078570420350E-01
(PID.TID 0000.0001) %MON trcstat_ptracer09_del2       =   7.9408339495397E-04
(PID.TID 0000.0001) // =======================================================
(PID.TID 0000.0001) // End MONITOR ptracer field statistics
(PID.TID 0000.0001) // =======================================================
 cg2d: Sum(rhs),rhsMax =  -1.00497182131676E-07  8.62615664857018E+00
 cg2d: Sum(rhs),rhsMax =  -1.00566929006618E-07  8.62017549344574E+00
 cg2d: Sum(rhs),rhsMax =  -1.00636839306389E-07  8.61421824973427E+00
 cg2d: Sum(rhs),rhsMax =  -1.00706515127058E-07  8.60828014305759E+00
 cg2d: Sum(rhs),rhsMax =  -1.00776318845419E-07  8.60235619466164E+00
 cg2d: Sum(rhs),rhsMax =  -1.00845916506387E-07  8.59644141396147E+00
 cg2d: Sum(rhs),rhsMax =  -1.00915485745645E-07  8.59053104903554E+00
 cg2d: Sum(rhs),rhsMax =  -1.00985261042297E-07  8.58462072248315E+00
 cg2d: Sum(rhs),rhsMax =  -1.01055491086299E-07  8.57870663714626E+00
 cg2d: Sum(rhs),rhsMax =  -1.01125422702353E-07  8.57278566865890E+00
 cg2d: Sum(rhs),rhsMax =  -1.01195716695202E-07  8.56685532083521E+00
 cg2d: Sum(rhs),rhsMax =  -1.01266216745444E-07  8.56091374139585E+00
 cg2d: Sum(rhs),rhsMax =  -1.01337192859319E-07  8.55495975914983E+00
 cg2d: Sum(rhs),rhsMax =  -1.01408346608878E-07  8.54899275863313E+00
 cg2d: Sum(rhs),rhsMax =  -1.01479535885574E-07  8.54301265247851E+00
 cg2d: Sum(rhs),rhsMax =  -1.01551435705005E-07  8.53701978569626E+00
 cg2d: Sum(rhs),rhsMax =  -1.01622724457684E-07  8.53101490472480E+00
 cg2d: Sum(rhs),rhsMax =  -1.01695292187287E-07  8.52499919193590E+00
(PID.TID 0000.0001) whio : write lev 3 rec   3
 cg2d: Sum(rhs),rhsMax =  -1.01767554383514E-07  8.51897431341724E+00
 cg2d: Sum(rhs),rhsMax =  -1.01840242905382E-07  8.51294235247767E+00
 cg2d: Sum(rhs),rhsMax =  -1.01912846162122E-07  8.50690569200869E+00
 cg2d: Sum(rhs),rhsMax =  -1.01985413891725E-07  8.50087005576702E+00
 cg2d: Sum(rhs),rhsMax =  -1.02058450579534E-07  8.49484015017416E+00
 cg2d: Sum(rhs),rhsMax =  -1.02131188839394E-07  8.48882063673028E+00
 cg2d: Sum(rhs),rhsMax =  -1.02203856044980E-07  8.48281607441673E+00
 cg2d: Sum(rhs),rhsMax =  -1.02276672464541E-07  8.47683086082370E+00
 cg2d: Sum(rhs),rhsMax =  -1.02349595465512E-07  8.47086915096995E+00
 cg2d: Sum(rhs),rhsMax =  -1.02421360281824E-07  8.46493476809303E+00
 EXTERNAL_FIELDS_LOAD, it=   3600570 : Reading new data, i0,i1=   10   11 (prev=    9   10 )
 DIC_FIELDS_LOAD, it=   3600570 : Reading new data, i0,i1=   10   11 (prev=    9   10 )
 cg2d: Sum(rhs),rhsMax =  -1.02493515896640E-07  8.45903109783263E+00
 cg2d: Sum(rhs),rhsMax =  -1.02564975179575E-07  8.45319648993583E+00
 cg2d: Sum(rhs),rhsMax =  -1.02634501786270E-07  8.44745634270964E+00
 cg2d: Sum(rhs),rhsMax =  -1.02703893389844E-07  8.44183524325516E+00
 cg2d: Sum(rhs),rhsMax =  -1.02770819410125E-07  8.43635626330932E+00
 cg2d: Sum(rhs),rhsMax =  -1.02836231974379E-07  8.43104036727980E+00
 cg2d: Sum(rhs),rhsMax =  -1.02899214482477E-07  8.42590597581903E+00
 cg2d: Sum(rhs),rhsMax =  -1.02960150627496E-07  8.42096861540595E+00
 cg2d: Sum(rhs),rhsMax =  -1.03018727770632E-07  8.41624063283881E+00
 cg2d: Sum(rhs),rhsMax =  -1.03074462742825E-07  8.41173099284368E+00
 cg2d: Sum(rhs),rhsMax =  -1.03127582917750E-07  8.40744522364360E+00
 cg2d: Sum(rhs),rhsMax =  -1.03177704602331E-07  8.40338548638234E+00
 cg2d: Sum(rhs),rhsMax =  -1.03225289649345E-07  8.39955071057647E+00
 cg2d: Sum(rhs),rhsMax =  -1.03270444640202E-07  8.39593686353065E+00
 cg2d: Sum(rhs),rhsMax =  -1.03312800092681E-07  8.39253726007720E+00
 cg2d: Sum(rhs),rhsMax =  -1.03352554958747E-07  8.38934286490718E+00
 cg2d: Sum(rhs),rhsMax =  -1.03389886874083E-07  8.38634267692018E+00
 cg2d: Sum(rhs),rhsMax =  -1.03425186637196E-07  8.38352418466840E+00
 cg2d: Sum(rhs),rhsMax =  -1.03458575040349E-07  8.38087384792736E+00
 cg2d: Sum(rhs),rhsMax =  -1.03489654179612E-07  8.37837764295235E+00
 cg2d: Sum(rhs),rhsMax =  -1.03519347760539E-07  8.37602165023152E+00
 cg2d: Sum(rhs),rhsMax =  -1.03547364460610E-07  8.37379265495454E+00
 cg2d: Sum(rhs),rhsMax =  -1.03573896126363E-07  8.37167859305842E+00
 cg2d: Sum(rhs),rhsMax =  -1.03599155920620E-07  8.36966841617237E+00
 cg2d: Sum(rhs),rhsMax =  -1.03623357006200E-07  8.36775262363169E+00
 cg2d: Sum(rhs),rhsMax =  -1.03646584648232E-07  8.36592322530019E+00
 cg2d: Sum(rhs),rhsMax =  -1.03668426731929E-07  8.36417370361670E+00
 cg2d: Sum(rhs),rhsMax =  -1.03689806962848E-07  8.36249893566327E+00
 cg2d: Sum(rhs),rhsMax =  -1.03710164012227E-07  8.36089512198643E+00
 cg2d: Sum(rhs),rhsMax =  -1.03729064448999E-07  8.35935972193128E+00
 cg2d: Sum(rhs),rhsMax =  -1.03747986202052E-07  8.35789132052859E+00
 cg2d: Sum(rhs),rhsMax =  -1.03765373182796E-07  8.35648953984663E+00
 cg2d: Sum(rhs),rhsMax =  -1.03782369365035E-07  8.35515503666620E+00
(PID.TID 0000.0001) // =======================================================
(PID.TID 0000.0001) // Begin MONITOR dynamic field statistics
(PID.TID 0000.0001) // =======================================================
(PID.TID 0000.0001) %MON time_tsnumber                =               3600603
(PID.TID 0000.0001) %MON time_secondsf                =   1.5554604960000E+11
(PID.TID 0000.0001) %MON dynstat_eta_max              =   8.3988224910882E-01
(PID.TID 0000.0001) %MON dynstat_eta_min              =  -1.5988194177027E+00
(PID.TID 0000.0001) %MON dynstat_eta_mean             =   3.0214149078173E-11
(PID.TID 0000.0001) %MON dynstat_eta_sd               =   6.1301355534769E-01
(PID.TID 0000.0001) %MON dynstat_eta_del2             =   1.2041314829943E-03
(PID.TID 0000.0001) %MON dynstat_uvel_max             =   3.4372023548816E-01
(PID.TID 0000.0001) %MON dynstat_uvel_min             =  -5.2240578605507E-01
(PID.TID 0000.0001) %MON dynstat_uvel_mean            =   1.7788909265322E-03
(PID.TID 0000.0001) %MON dynstat_uvel_sd              =   1.4468554080344E-02
(PID.TID 0000.0001) %MON dynstat_uvel_del2            =   6.8922786247790E-05
(PID.TID 0000.0001) %MON dynstat_vvel_max             =   3.4106691550624E-01
(PID.TID 0000.0001) %MON dynstat_vvel_min             =  -4.1451875114248E-01
(PID.TID 0000.0001) %MON dynstat_vvel_mean            =  -6.7144850764318E-05
(PID.TID 0000.0001) %MON dynstat_vvel_sd              =   8.7775342879156E-03
(PID.TID 0000.0001) %MON dynstat_vvel_del2            =   5.5366150634132E-05
(PID.TID 0000.0001) %MON dynstat_wvel_max             =   6.3972449144850E-05
(PID.TID 0000.0001) %MON dynstat_wvel_min             =  -6.0167821258508E-05
(PID.TID 0000.0001) %MON dynstat_wvel_mean            =  -3.3855079469134E-23
(PID.TID 0000.0001) %MON dynstat_wvel_sd              =   2.4281951480219E-06
(PID.TID 0000.0001) %MON dynstat_wvel_del2            =   1.3568295566321E-08
(PID.TID 0000.0001) %MON dynstat_theta_max            =   3.2596811440843E+01
(PID.TID 0000.0001) %MON dynstat_theta_min            =  -2.3447215122784E+00
(PID.TID 0000.0001) %MON dynstat_theta_mean           =   4.0649004052961E+00
(PID.TID 0000.0001) %MON dynstat_theta_sd             =   4.2412615302299E+00
(PID.TID 0000.0001) %MON dynstat_theta_del2           =   2.5966023137898E-03
(PID.TID 0000.0001) %MON dynstat_salt_max             =   3.7593866893679E+01
(PID.TID 0000.0001) %MON dynstat_salt_min             =   3.1382114387066E+01
(PID.TID 0000.0001) %MON dynstat_salt_mean            =   3.5041094072456E+01
(PID.TID 0000.0001) %MON dynstat_salt_sd              =   3.0776589527109E-01
(PID.TID 0000.0001) %MON dynstat_salt_del2            =   3.6330721074774E-04
(PID.TID 0000.0001) %MON dynstat_sst_max              =   3.2596811440843E+01
(PID.TID 0000.0001) %MON dynstat_sst_min              =  -2.2013187339842E+00
(PID.TID 0000.0001) %MON dynstat_sst_mean             =   1.7979468681074E+01
(PID.TID 0000.0001) %MON dynstat_sst_sd               =   9.7185948680814E+00
(PID.TID 0000.0001) %MON dynstat_sst_del2             =   1.5849062679151E-02
(PID.TID 0000.0001) %MON dynstat_sss_max              =   3.7592058150811E+01
(PID.TID 0000.0001) %MON dynstat_sss_min              =   3.1382114387066E+01
(PID.TID 0000.0001) %MON dynstat_sss_mean             =   3.4903973361388E+01
(PID.TID 0000.0001) %MON dynstat_sss_sd               =   9.3541722931863E-01
(PID.TID 0000.0001) %MON dynstat_sss_del2             =   2.5814437674260E-03
(PID.TID 0000.0001) %MON forcing_qnet_max             =   3.1426371866862E+02
(PID.TID 0000.0001) %MON forcing_qnet_min             =  -1.6160417429606E+02
(PID.TID 0000.0001) %MON forcing_qnet_mean            =  -1.3632929402335E+01
(PID.TID 0000.0001) %MON forcing_qnet_sd              =   7.7786967264569E+01
(PID.TID 0000.0001) %MON forcing_qnet_del2            =   2.5577522983659E-01
(PID.TID 0000.0001) %MON forcing_qsw_max              =   0.0000000000000E+00
(PID.TID 0000.0001) %MON forcing_qsw_min              =   0.0000000000000E+00
(PID.TID 0000.0001) %MON forcing_qsw_mean             =   0.0000000000000E+00
(PID.TID 0000.0001) %MON forcing_qsw_sd               =   0.0000000000000E+00
(PID.TID 0000.0001) %MON forcing_qsw_del2             =   0.0000000000000E+00
(PID.TID 0000.0001) %MON forcing_empmr_max            =   6.6865915471226E-05
(PID.TID 0000.0001) %MON forcing_empmr_min            =  -1.5018765964214E-04
(PID.TID 0000.0001) %MON forcing_empmr_mean           =   7.7320599494484E-09
(PID.TID 0000.0001) %MON forcing_empmr_sd             =   2.3858729798697E-05
(PID.TID 0000.0001) %MON forcing_empmr_del2           =   1.1192342175733E-07
(PID.TID 0000.0001) %MON forcing_fu_max               =   3.0017909804980E-01
(PID.TID 0000.0001) %MON forcing_fu_min               =  -2.1393296917280E-01
(PID.TID 0000.0001) %MON forcing_fu_mean              =   2.5232020993576E-02
(PID.TID 0000.0001) %MON forcing_fu_sd                =   9.7553077023266E-02
(PID.TID 0000.0001) %MON forcing_fu_del2              =   2.5886139045341E-04
(PID.TID 0000.0001) %MON forcing_fv_max               =   2.0118645926317E-01
(PID.TID 0000.0001) %MON forcing_fv_min               =  -1.6614859402180E-01
(PID.TID 0000.0001) %MON forcing_fv_mean              =  -6.0966213647408E-03
(PID.TID 0000.0001) %MON forcing_fv_sd                =   3.8288192750028E-02
(PID.TID 0000.0001) %MON forcing_fv_del2              =   1.6649457561620E-04
(PID.TID 0000.0001) %MON trAdv_CFL_u_max              =   7.2203262040627E-02
(PID.TID 0000.0001) %MON trAdv_CFL_v_max              =   5.7153685321041E-02
(PID.TID 0000.0001) %MON trAdv_CFL_w_max              =   5.5749921872191E-02
(PID.TID 0000.0001) %MON advcfl_uvel_max              =   7.2196013137537E-02
(PID.TID 0000.0001) %MON advcfl_vvel_max              =   5.7268867744346E-02
(PID.TID 0000.0001) %MON advcfl_wvel_max              =   5.8152969404029E-02
(PID.TID 0000.0001) %MON advcfl_W_hf_max              =   7.2691211755036E-02
(PID.TID 0000.0001) %MON pe_b_mean                    =   4.8429322742186E-04
(PID.TID 0000.0001) %MON ke_max                       =   1.3961174737198E-01
(PID.TID 0000.0001) %MON ke_mean                      =   1.3401385844871E-04
(PID.TID 0000.0001) %MON ke_vol                       =   1.2572502945428E+18
(PID.TID 0000.0001) %MON vort_r_min                   =  -1.9015345941723E-06
(PID.TID 0000.0001) %MON vort_r_max                   =   1.6950132401232E-06
(PID.TID 0000.0001) %MON vort_a_mean                  =  -2.3966255162188E-05
(PID.TID 0000.0001) %MON vort_a_sd                    =   7.3206871823808E-05
(PID.TID 0000.0001) %MON vort_p_mean                  =  -2.8692533918785E-05
(PID.TID 0000.0001) %MON vort_p_sd                    =   1.1861218501153E-04
(PID.TID 0000.0001) %MON surfExpan_theta_mean         =   7.4402960716594E-08
(PID.TID 0000.0001) %MON surfExpan_salt_mean          =   2.5596818302137E-08
(PID.TID 0000.0001) // =======================================================
(PID.TID 0000.0001) // End MONITOR dynamic field statistics
(PID.TID 0000.0001) // =======================================================
(PID.TID 0000.0001) // =======================================================
(PID.TID 0000.0001) // Begin MONITOR ptracer field statistics
(PID.TID 0000.0001) // =======================================================
(PID.TID 0000.0001) %MON trcstat_ptracer01_max        =   2.3003839957163E+00
(PID.TID 0000.0001) %MON trcstat_ptracer01_min        =  -8.8161137748496E-02
(PID.TID 0000.0001) %MON trcstat_ptracer01_mean       =   9.8193106956325E-01
(PID.TID 0000.0001) %MON trcstat_ptracer01_sd         =   1.0950040103350E+00
(PID.TID 0000.0001) %MON trcstat_ptracer01_del2       =   1.7484988066779E-04
(PID.TID 0000.0001) %MON trcstat_ptracer02_max        =   2.4195238968589E+00
(PID.TID 0000.0001) %MON trcstat_ptracer02_min        =  -9.2757591016318E-02
(PID.TID 0000.0001) %MON trcstat_ptracer02_mean       =   1.0312470197854E+00
(PID.TID 0000.0001) %MON trcstat_ptracer02_sd         =   1.1497852393283E+00
(PID.TID 0000.0001) %MON trcstat_ptracer02_del2       =   1.7765986343914E-04
(PID.TID 0000.0001) %MON trcstat_ptracer03_max        =   2.4827336303525E-03
(PID.TID 0000.0001) %MON trcstat_ptracer03_min        =  -8.2875735814193E-05
(PID.TID 0000.0001) %MON trcstat_ptracer03_mean       =   9.6410555026271E-04
(PID.TID 0000.0001) %MON trcstat_ptracer03_sd         =   1.0796316354288E-03
(PID.TID 0000.0001) %MON trcstat_ptracer03_del2       =   3.0709937904578E-07
(PID.TID 0000.0001) %MON trcstat_ptracer04_max        =   8.4679105268775E-04
(PID.TID 0000.0001) %MON trcstat_ptracer04_min        =  -2.7977590565019E-07
(PID.TID 0000.0001) %MON trcstat_ptracer04_mean       =   1.8720314437827E-06
(PID.TID 0000.0001) %MON trcstat_ptracer04_sd         =   2.3786794582513E-05
(PID.TID 0000.0001) %MON trcstat_ptracer04_del2       =   6.0035041220325E-08
(PID.TID 0000.0001) %MON trcstat_ptracer05_max        =   3.7447693499030E-01
(PID.TID 0000.0001) %MON trcstat_ptracer05_min        =  -8.1199414612027E-03
(PID.TID 0000.0001) %MON trcstat_ptracer05_mean       =   8.5057112588898E-02
(PID.TID 0000.0001) %MON trcstat_ptracer05_sd         =   9.5687152308271E-02
(PID.TID 0000.0001) %MON trcstat_ptracer05_del2       =   5.0809268532583E-05
(PID.TID 0000.0001) %MON trcstat_ptracer06_max        =   2.3047016416101E-06
(PID.TID 0000.0001) %MON trcstat_ptracer06_min        =  -2.1514642093141E-11
(PID.TID 0000.0001) %MON trcstat_ptracer06_mean       =   9.5985129488722E-10
(PID.TID 0000.0001) %MON trcstat_ptracer06_sd         =   2.1091410094678E-08
(PID.TID 0000.0001) %MON trcstat_ptracer06_del2       =   1.0546334393633E-10
(PID.TID 0000.0001) %MON trcstat_ptracer07_max        =   3.7447693499030E-01
(PID.TID 0000.0001) %MON trcstat_ptracer07_min        =  -5.5012835233218E-03
(PID.TID 0000.0001) %MON trcstat_ptracer07_mean       =   9.5851868578583E-03
(PID.TID 0000.0001) %MON trcstat_ptracer07_sd         =   4.1610972036515E-02
(PID.TID 0000.0001) %MON trcstat_ptracer07_del2       =   9.5610658088317E-05
(PID.TID 0000.0001) %MON trcstat_ptracer08_max        =   2.3770085924622E+00
(PID.TID 0000.0001) %MON trcstat_ptracer08_min        =  -6.0923802554386E-02
(PID.TID 0000.0001) %MON trcstat_ptracer08_mean       =   8.6416650559393E-02
(PID.TID 0000.0001) %MON trcstat_ptracer08_sd         =   3.7257596292044E-01
(PID.TID 0000.0001) %MON trcstat_ptracer08_del2       =   7.7426310835461E-04
(PID.TID 0000.0001) %MON trcstat_ptracer09_max        =   2.2547178750526E+00
(PID.TID 0000.0001) %MON trcstat_ptracer09_min        =  -5.7933323334044E-02
(PID.TID 0000.0001) %MON trcstat_ptracer09_mean       =   7.9103131085652E-02
(PID.TID 0000.0001) %MON trcstat_ptracer09_sd         =   3.4006294078208E-01
(PID.TID 0000.0001) %MON trcstat_ptracer09_del2       =   7.2188449674414E-04
(PID.TID 0000.0001) // =======================================================
(PID.TID 0000.0001) // End MONITOR ptracer field statistics
(PID.TID 0000.0001) // =======================================================
 cg2d: Sum(rhs),rhsMax =  -1.03798733164240E-07  8.35388959337713E+00
 cg2d: Sum(rhs),rhsMax =  -1.03813491136862E-07  8.35269612989214E+00
 cg2d: Sum(rhs),rhsMax =  -1.03827638042731E-07  8.35157865319166E+00
 cg2d: Sum(rhs),rhsMax =  -1.03841280463257E-07  8.35054220321588E+00
 cg2d: Sum(rhs),rhsMax =  -1.03853331268056E-07  8.34959282244478E+00
 cg2d: Sum(rhs),rhsMax =  -1.03864024936229E-07  8.34873757212784E+00
 cg2d: Sum(rhs),rhsMax =  -1.03873794898846E-07  8.34798443944571E+00
 cg2d: Sum(rhs),rhsMax =  -1.03881951929452E-07  8.34734205444848E+00
 cg2d: Sum(rhs),rhsMax =  -1.03888730507151E-07  8.34681927427749E+00
 cg2d: Sum(rhs),rhsMax =  -1.03893782466002E-07  8.34642479662444E+00
 cg2d: Sum(rhs),rhsMax =  -1.03896695691219E-07  8.34616690162161E+00
 cg2d: Sum(rhs),rhsMax =  -1.03898251779810E-07  8.34605328416144E+00
 cg2d: Sum(rhs),rhsMax =  -1.03897747294468E-07  8.34609086201575E+00
 cg2d: Sum(rhs),rhsMax =  -1.03895416714295E-07  8.34628560159372E+00
 cg2d: Sum(rhs),rhsMax =  -1.03891132141598E-07  8.34664238294981E+00
 cg2d: Sum(rhs),rhsMax =  -1.03884730151549E-07  8.34716488141953E+00
 cg2d: Sum(rhs),rhsMax =  -1.03876232060429E-07  8.34785544920597E+00
 cg2d: Sum(rhs),rhsMax =  -1.03865339440290E-07  8.34871504733891E+00
 cg2d: Sum(rhs),rhsMax =  -1.03852393351644E-07  8.34974320296400E+00
 cg2d: Sum(rhs),rhsMax =  -1.03837578535604E-07  8.35093803633076E+00
 cg2d: Sum(rhs),rhsMax =  -1.03820866570459E-07  8.35229628921908E+00
 cg2d: Sum(rhs),rhsMax =  -1.03801575335183E-07  8.35381348895399E+00
 cg2d: Sum(rhs),rhsMax =  -1.03780770643880E-07  8.35548405560547E+00
 cg2d: Sum(rhs),rhsMax =  -1.03758168279455E-07  8.35730145035772E+00
 cg2d: Sum(rhs),rhsMax =  -1.03734052459004E-07  8.35925834161856E+00
 cg2d: Sum(rhs),rhsMax =  -1.03707641585515E-07  8.36134677020027E+00
 cg2d: Sum(rhs),rhsMax =  -1.03680264373907E-07  8.36355833544679E+00
 EXTERNAL_FIELDS_LOAD, it=   3600630 : Reading new data, i0,i1=   11   12 (prev=   10   11 )
 DIC_FIELDS_LOAD, it=   3600630 : Reading new data, i0,i1=   11   12 (prev=   10   11 )
 cg2d: Sum(rhs),rhsMax =  -1.03651167648877E-07  8.36588437297216E+00
 cg2d: Sum(rhs),rhsMax =  -1.03620983793462E-07  8.36829873825493E+00
 cg2d: Sum(rhs),rhsMax =  -1.03590167555012E-07  8.37078098256463E+00
 cg2d: Sum(rhs),rhsMax =  -1.03558832620365E-07  8.37331076990736E+00
 cg2d: Sum(rhs),rhsMax =  -1.03526986094948E-07  8.37586828475342E+00
 cg2d: Sum(rhs),rhsMax =  -1.03494969039275E-07  8.37843651347270E+00
 cg2d: Sum(rhs),rhsMax =  -1.03462959089029E-07  8.38100058596186E+00
 cg2d: Sum(rhs),rhsMax =  -1.03431759157502E-07  8.38354800119352E+00
 cg2d: Sum(rhs),rhsMax =  -1.03400431328282E-07  8.38606907281455E+00
 cg2d: Sum(rhs),rhsMax =  -1.03369536930131E-07  8.38855705740912E+00
 cg2d: Sum(rhs),rhsMax =  -1.03339182544460E-07  8.39100818777902E+00
 cg2d: Sum(rhs),rhsMax =  -1.03309091059600E-07  8.39342162927294E+00
 cg2d: Sum(rhs),rhsMax =  -1.03279326424399E-07  8.39579937673915E+00
 cg2d: Sum(rhs),rhsMax =  -1.03250158645096E-07  8.39814606298476E+00
 cg2d: Sum(rhs),rhsMax =  -1.03221587721691E-07  8.40046867037939E+00
 cg2d: Sum(rhs),rhsMax =  -1.03192640210636E-07  8.40277617859981E+00
 cg2d: Sum(rhs),rhsMax =  -1.03164317977189E-07  8.40507915533000E+00
 cg2d: Sum(rhs),rhsMax =  -1.03135583628955E-07  8.40738929078001E+00
 cg2d: Sum(rhs),rhsMax =  -1.03106465587643E-07  8.40971893982490E+00
 cg2d: Sum(rhs),rhsMax =  -1.03077603341717E-07  8.41208069021930E+00
 cg2d: Sum(rhs),rhsMax =  -1.03047760546815E-07  8.41448664736628E+00
 cg2d: Sum(rhs),rhsMax =  -1.03017328001442E-07  8.41694808963461E+00
 cg2d: Sum(rhs),rhsMax =  -1.02985850958248E-07  8.41947641344255E+00
 cg2d: Sum(rhs),rhsMax =  -1.02953762848301E-07  8.42209465677943E+00
 cg2d: Sum(rhs),rhsMax =  -1.02920779454507E-07  8.42481840011152E+00
 cg2d: Sum(rhs),rhsMax =  -1.02885756803062E-07  8.42766143831664E+00
 cg2d: Sum(rhs),rhsMax =  -1.02849760708068E-07  8.43063562227923E+00
 cg2d: Sum(rhs),rhsMax =  -1.02811505087175E-07  8.43375048923612E+00
 cg2d: Sum(rhs),rhsMax =  -1.02771743115682E-07  8.43701312183894E+00
 cg2d: Sum(rhs),rhsMax =  -1.02730268736195E-07  8.44042805498092E+00
 cg2d: Sum(rhs),rhsMax =  -1.02686364300553E-07  8.44399728026233E+00
 cg2d: Sum(rhs),rhsMax =  -1.02641237731405E-07  8.44772028674299E+00
 cg2d: Sum(rhs),rhsMax =  -1.02594057693750E-07  8.45159419183708E+00
 cg2d: Sum(rhs),rhsMax =  -1.02545079982974E-07  8.45561389463918E+00
(PID.TID 0000.0001) // =======================================================
(PID.TID 0000.0001) // Begin MONITOR dynamic field statistics
(PID.TID 0000.0001) // =======================================================
(PID.TID 0000.0001) %MON time_tsnumber                =               3600664
(PID.TID 0000.0001) %MON time_secondsf                =   1.5554868480000E+11
(PID.TID 0000.0001) %MON dynstat_eta_max              =   8.4146817799299E-01
(PID.TID 0000.0001) %MON dynstat_eta_min              =  -1.5999940222665E+00
(PID.TID 0000.0001) %MON dynstat_eta_mean             =   3.0212599974954E-11
(PID.TID 0000.0001) %MON dynstat_eta_sd               =   6.1319918596932E-01
(PID.TID 0000.0001) %MON dynstat_eta_del2             =   1.2018973849723E-03
(PID.TID 0000.0001) %MON dynstat_uvel_max             =   3.1338561330690E-01
(PID.TID 0000.0001) %MON dynstat_uvel_min             =  -4.8589365332532E-01
(PID.TID 0000.0001) %MON dynstat_uvel_mean            =   1.7979449809519E-03
(PID.TID 0000.0001) %MON dynstat_uvel_sd              =   1.4404305152069E-02
(PID.TID 0000.0001) %MON dynstat_uvel_del2            =   6.7980028438503E-05
(PID.TID 0000.0001) %MON dynstat_vvel_max             =   2.6453289902544E-01
(PID.TID 0000.0001) %MON dynstat_vvel_min             =  -3.9541696109983E-01
(PID.TID 0000.0001) %MON dynstat_vvel_mean            =  -1.2561200369817E-04
(PID.TID 0000.0001) %MON dynstat_vvel_sd              =   8.5413926685357E-03
(PID.TID 0000.0001) %MON dynstat_vvel_del2            =   5.3684470826100E-05
(PID.TID 0000.0001) %MON dynstat_wvel_max             =   6.3244244374798E-05
(PID.TID 0000.0001) %MON dynstat_wvel_min             =  -6.0271474801945E-05
(PID.TID 0000.0001) %MON dynstat_wvel_mean            =  -4.9243751955104E-23
(PID.TID 0000.0001) %MON dynstat_wvel_sd              =   2.4050124344317E-06
(PID.TID 0000.0001) %MON dynstat_wvel_del2            =   1.3308912158682E-08
(PID.TID 0000.0001) %MON dynstat_theta_max            =   3.2809614703713E+01
(PID.TID 0000.0001) %MON dynstat_theta_min            =  -2.3511825306519E+00
(PID.TID 0000.0001) %MON dynstat_theta_mean           =   4.0675227316145E+00
(PID.TID 0000.0001) %MON dynstat_theta_sd             =   4.2435407802511E+00
(PID.TID 0000.0001) %MON dynstat_theta_del2           =   2.5753174682391E-03
(PID.TID 0000.0001) %MON dynstat_salt_max             =   3.7589947168394E+01
(PID.TID 0000.0001) %MON dynstat_salt_min             =   3.1416109507160E+01
(PID.TID 0000.0001) %MON dynstat_salt_mean            =   3.5041069636871E+01
(PID.TID 0000.0001) %MON dynstat_salt_sd              =   3.0790372821143E-01
(PID.TID 0000.0001) %MON dynstat_salt_del2            =   3.6399903452161E-04
(PID.TID 0000.0001) %MON dynstat_sst_max              =   3.2809614703713E+01
(PID.TID 0000.0001) %MON dynstat_sst_min              =  -2.1618801156062E+00
(PID.TID 0000.0001) %MON dynstat_sst_mean             =   1.8263584375581E+01
(PID.TID 0000.0001) %MON dynstat_sst_sd               =   9.6196385100360E+00
(PID.TID 0000.0001) %MON dynstat_sst_del2             =   1.6182992350802E-02
(PID.TID 0000.0001) %MON dynstat_sss_max              =   3.7589233370779E+01
(PID.TID 0000.0001) %MON dynstat_sss_min              =   3.1416109507160E+01
(PID.TID 0000.0001) %MON dynstat_sss_mean             =   3.4897382209807E+01
(PID.TID 0000.0001) %MON dynstat_sss_sd               =   9.3631768717575E-01
(PID.TID 0000.0001) %MON dynstat_sss_del2             =   2.5589678486669E-03
(PID.TID 0000.0001) %MON forcing_qnet_max             =   4.1600670166016E+02
(PID.TID 0000.0001) %MON forcing_qnet_min             =  -1.9961857833862E+02
(PID.TID 0000.0001) %MON forcing_qnet_mean            =  -1.6509298186491E+01
(PID.TID 0000.0001) %MON forcing_qnet_sd              =   1.0852501074771E+02
(PID.TID 0000.0001) %MON forcing_qnet_del2            =   2.6347569514320E-01
(PID.TID 0000.0001) %MON forcing_qsw_max              =   0.0000000000000E+00
(PID.TID 0000.0001) %MON forcing_qsw_min              =   0.0000000000000E+00
(PID.TID 0000.0001) %MON forcing_qsw_mean             =   0.0000000000000E+00
(PID.TID 0000.0001) %MON forcing_qsw_sd               =   0.0000000000000E+00
(PID.TID 0000.0001) %MON forcing_qsw_del2             =   0.0000000000000E+00
(PID.TID 0000.0001) %MON forcing_empmr_max            =   6.6865915471226E-05
(PID.TID 0000.0001) %MON forcing_empmr_min            =  -1.5018765964214E-04
(PID.TID 0000.0001) %MON forcing_empmr_mean           =   7.7320599494484E-09
(PID.TID 0000.0001) %MON forcing_empmr_sd             =   2.3858729798697E-05
(PID.TID 0000.0001) %MON forcing_empmr_del2           =   1.1192342175733E-07
(PID.TID 0000.0001) %MON forcing_fu_max               =   2.7119321525097E-01
(PID.TID 0000.0001) %MON forcing_fu_min               =  -1.6599628701806E-01
(PID.TID 0000.0001) %MON forcing_fu_mean              =   2.0221311376106E-02
(PID.TID 0000.0001) %MON forcing_fu_sd                =   9.1942126466983E-02
(PID.TID 0000.0001) %MON forcing_fu_del2              =   2.3827825811865E-04
(PID.TID 0000.0001) %MON forcing_fv_max               =   1.8569927662611E-01
(PID.TID 0000.0001) %MON forcing_fv_min               =  -1.6683834344149E-01
(PID.TID 0000.0001) %MON forcing_fv_mean              =  -6.9787809413152E-03
(PID.TID 0000.0001) %MON forcing_fv_sd                =   4.0621045387729E-02
(PID.TID 0000.0001) %MON forcing_fv_del2              =   1.7477519424234E-04
(PID.TID 0000.0001) %MON trAdv_CFL_u_max              =   6.7156811259412E-02
(PID.TID 0000.0001) %MON trAdv_CFL_v_max              =   5.4585927296963E-02
(PID.TID 0000.0001) %MON trAdv_CFL_w_max              =   4.7084493964232E-02
(PID.TID 0000.0001) %MON advcfl_uvel_max              =   6.7150068998704E-02
(PID.TID 0000.0001) %MON advcfl_vvel_max              =   5.4629812491435E-02
(PID.TID 0000.0001) %MON advcfl_wvel_max              =   5.6501392757078E-02
(PID.TID 0000.0001) %MON advcfl_W_hf_max              =   7.0626740946347E-02
(PID.TID 0000.0001) %MON pe_b_mean                    =   4.8458657579440E-04
(PID.TID 0000.0001) %MON ke_max                       =   1.2910056591248E-01
(PID.TID 0000.0001) %MON ke_mean                      =   1.3131171956771E-04
(PID.TID 0000.0001) %MON ke_vol                       =   1.2572502945428E+18
(PID.TID 0000.0001) %MON vort_r_min                   =  -1.2968052408542E-06
(PID.TID 0000.0001) %MON vort_r_max                   =   1.5411088623153E-06
(PID.TID 0000.0001) %MON vort_a_mean                  =  -2.3966255162188E-05
(PID.TID 0000.0001) %MON vort_a_sd                    =   7.3206878042515E-05
(PID.TID 0000.0001) %MON vort_p_mean                  =  -2.8692533918785E-05
(PID.TID 0000.0001) %MON vort_p_sd                    =   1.1861217535727E-04
(PID.TID 0000.0001) %MON surfExpan_theta_mean         =  -1.7350633149410E-07
(PID.TID 0000.0001) %MON surfExpan_salt_mean          =   2.1276766515922E-08
(PID.TID 0000.0001) // =======================================================
(PID.TID 0000.0001) // End MONITOR dynamic field statistics
(PID.TID 0000.0001) // =======================================================
(PID.TID 0000.0001) // =======================================================
(PID.TID 0000.0001) // Begin MONITOR ptracer field statistics
(PID.TID 0000.0001) // =======================================================
(PID.TID 0000.0001) %MON trcstat_ptracer01_max        =   2.3005942035625E+00
(PID.TID 0000.0001) %MON trcstat_ptracer01_min        =  -9.2471095582000E-02
(PID.TID 0000.0001) %MON trcstat_ptracer01_mean       =   9.8174779749558E-01
(PID.TID 0000.0001) %MON trcstat_ptracer01_sd         =   1.0927529522812E+00
(PID.TID 0000.0001) %MON trcstat_ptracer01_del2       =   1.7250555630598E-04
(PID.TID 0000.0001) %MON trcstat_ptracer02_max        =   2.4121223371408E+00
(PID.TID 0000.0001) %MON trcstat_ptracer02_min        =  -9.7288266710966E-02
(PID.TID 0000.0001) %MON trcstat_ptracer02_mean       =   1.0312501595663E+00
(PID.TID 0000.0001) %MON trcstat_ptracer02_sd         =   1.1476417668037E+00
(PID.TID 0000.0001) %MON trcstat_ptracer02_del2       =   1.7535023865744E-04
(PID.TID 0000.0001) %MON trcstat_ptracer03_max        =   2.4761234295294E-03
(PID.TID 0000.0001) %MON trcstat_ptracer03_min        =  -8.6915751727806E-05
(PID.TID 0000.0001) %MON trcstat_ptracer03_mean       =   9.6386094107614E-04
(PID.TID 0000.0001) %MON trcstat_ptracer03_sd         =   1.0773172012641E-03
(PID.TID 0000.0001) %MON trcstat_ptracer03_del2       =   2.9519771922396E-07
(PID.TID 0000.0001) %MON trcstat_ptracer04_max        =   8.9585808778445E-04
(PID.TID 0000.0001) %MON trcstat_ptracer04_min        =  -2.1900164912825E-07
(PID.TID 0000.0001) %MON trcstat_ptracer04_mean       =   2.1103415499140E-06
(PID.TID 0000.0001) %MON trcstat_ptracer04_sd         =   2.5867819572857E-05
(PID.TID 0000.0001) %MON trcstat_ptracer04_del2       =   6.4646247802580E-08
(PID.TID 0000.0001) %MON trcstat_ptracer05_max        =   3.7478725438227E-01
(PID.TID 0000.0001) %MON trcstat_ptracer05_min        =  -8.5204962908327E-03
(PID.TID 0000.0001) %MON trcstat_ptracer05_mean       =   8.5139455580303E-02
(PID.TID 0000.0001) %MON trcstat_ptracer05_sd         =   9.5567950153161E-02
(PID.TID 0000.0001) %MON trcstat_ptracer05_del2       =   4.7529549984044E-05
(PID.TID 0000.0001) %MON trcstat_ptracer06_max        =   2.5825231133153E-06
(PID.TID 0000.0001) %MON trcstat_ptracer06_min        =  -3.1127047194936E-11
(PID.TID 0000.0001) %MON trcstat_ptracer06_mean       =   9.8102049745191E-10
(PID.TID 0000.0001) %MON trcstat_ptracer06_sd         =   1.9686254421718E-08
(PID.TID 0000.0001) %MON trcstat_ptracer06_del2       =   1.0014581959515E-10
(PID.TID 0000.0001) %MON trcstat_ptracer07_max        =   3.7478725438227E-01
(PID.TID 0000.0001) %MON trcstat_ptracer07_min        =  -5.2150103600429E-03
(PID.TID 0000.0001) %MON trcstat_ptracer07_mean       =   9.7987611299368E-03
(PID.TID 0000.0001) %MON trcstat_ptracer07_sd         =   4.1602613366873E-02
(PID.TID 0000.0001) %MON trcstat_ptracer07_del2       =   8.8543658649169E-05
(PID.TID 0000.0001) %MON trcstat_ptracer08_max        =   2.3865403816131E+00
(PID.TID 0000.0001) %MON trcstat_ptracer08_min        =  -5.7735456303250E-02
(PID.TID 0000.0001) %MON trcstat_ptracer08_mean       =   8.8287914223809E-02
(PID.TID 0000.0001) %MON trcstat_ptracer08_sd         =   3.7282979729849E-01
(PID.TID 0000.0001) %MON trcstat_ptracer08_del2       =   7.0773109715431E-04
(PID.TID 0000.0001) %MON trcstat_ptracer09_max        =   2.2474469983429E+00
(PID.TID 0000.0001) %MON trcstat_ptracer09_min        =  -5.4901284794540E-02
(PID.TID 0000.0001) %MON trcstat_ptracer09_mean       =   8.0706131116031E-02
(PID.TID 0000.0001) %MON trcstat_ptracer09_sd         =   3.3957825916457E-01
(PID.TID 0000.0001) %MON trcstat_ptracer09_del2       =   6.5827222061319E-04
(PID.TID 0000.0001) // =======================================================
(PID.TID 0000.0001) // End MONITOR ptracer field statistics
(PID.TID 0000.0001) // =======================================================
 cg2d: Sum(rhs),rhsMax =  -1.02494418285914E-07  8.45977229544668E+00
 cg2d: Sum(rhs),rhsMax =  -1.02442626825905E-07  8.46406043486096E+00
 cg2d: Sum(rhs),rhsMax =  -1.02389186906748E-07  8.46846786249842E+00
 cg2d: Sum(rhs),rhsMax =  -1.02334411167249E-07  8.47298294092153E+00
 cg2d: Sum(rhs),rhsMax =  -1.02278569613645E-07  8.47759310010859E+00
 cg2d: Sum(rhs),rhsMax =  -1.02221783038203E-07  8.48228511495217E+00
 cg2d: Sum(rhs),rhsMax =  -1.02164435134000E-07  8.48704540520819E+00
 cg2d: Sum(rhs),rhsMax =  -1.02106639587873E-07  8.49186038102640E+00
 cg2d: Sum(rhs),rhsMax =  -1.02048161920720E-07  8.49671683330553E+00
 cg2d: Sum(rhs),rhsMax =  -1.01989222400789E-07  8.50160229731839E+00
 cg2d: Sum(rhs),rhsMax =  -1.01930119456028E-07  8.50650541756349E+00
 cg2d: Sum(rhs),rhsMax =  -1.01871734159431E-07  8.51141606286167E+00
 cg2d: Sum(rhs),rhsMax =  -1.01813114383731E-07  8.51632550458549E+00
 cg2d: Sum(rhs),rhsMax =  -1.01754352499484E-07  8.52122658728227E+00
 cg2d: Sum(rhs),rhsMax =  -1.01695938781177E-07  8.52611387363114E+00
 cg2d: Sum(rhs),rhsMax =  -1.01637908755947E-07  8.53098375482528E+00
 cg2d: Sum(rhs),rhsMax =  -1.01580091893538E-07  8.53583450654913E+00
 cg2d: Sum(rhs),rhsMax =  -1.01522516615660E-07  8.54066629803099E+00
 cg2d: Sum(rhs),rhsMax =  -1.01465325030858E-07  8.54548114840508E+00
 cg2d: Sum(rhs),rhsMax =  -1.01408510033707E-07  8.55028281355603E+00
 cg2d: Sum(rhs),rhsMax =  -1.01351844250530E-07  8.55507663782142E+00
 cg2d: Sum(rhs),rhsMax =  -1.01294901355686E-07  8.55986938569464E+00
 cg2d: Sum(rhs),rhsMax =  -1.01238242677937E-07  8.56466907941720E+00
 cg2d: Sum(rhs),rhsMax =  -1.01181711897880E-07  8.56948481849350E+00
 cg2d: Sum(rhs),rhsMax =  -1.01124427942523E-07  8.57432655386490E+00
 cg2d: Sum(rhs),rhsMax =  -1.01066994773191E-07  8.57920482306538E+00
 EXTERNAL_FIELDS_LOAD, it=   3600690 : Reading new data, i0,i1=   12    1 (prev=   11   12 )
 DIC_FIELDS_LOAD, it=   3600690 : Reading new data, i0,i1=   12    1 (prev=   11   12 )
 cg2d: Sum(rhs),rhsMax =  -1.01009099751082E-07  8.58413045456863E+00
 cg2d: Sum(rhs),rhsMax =  -1.00950970249869E-07  8.58908772075261E+00
 cg2d: Sum(rhs),rhsMax =  -1.00892201260194E-07  8.59407113784658E+00
 cg2d: Sum(rhs),rhsMax =  -1.00833979388426E-07  8.59907533504329E+00
 cg2d: Sum(rhs),rhsMax =  -1.00775366718153E-07  8.60409527812640E+00
 cg2d: Sum(rhs),rhsMax =  -1.00716533779632E-07  8.60912639608676E+00
 cg2d: Sum(rhs),rhsMax =  -1.00657807422522E-07  8.61416467727663E+00
 cg2d: Sum(rhs),rhsMax =  -1.00599194752249E-07  8.61920670304104E+00
 cg2d: Sum(rhs),rhsMax =  -1.00540219705181E-07  8.62424959025954E+00
 cg2d: Sum(rhs),rhsMax =  -1.00481713616318E-07  8.62929084710763E+00
 cg2d: Sum(rhs),rhsMax =  -1.00423278581729E-07  8.63432823431656E+00
 cg2d: Sum(rhs),rhsMax =  -1.00365085131671E-07  8.63935967110789E+00
 cg2d: Sum(rhs),rhsMax =  -1.00306984052168E-07  8.64438326330631E+00
 cg2d: Sum(rhs),rhsMax =  -1.00248698231553E-07  8.64939736363611E+00
 cg2d: Sum(rhs),rhsMax =  -1.00191144269957E-07  8.65440069908248E+00
 cg2d: Sum(rhs),rhsMax =  -1.00133568992078E-07  8.65939260929048E+00
 cg2d: Sum(rhs),rhsMax =  -1.00076100295610E-07  8.66437312037654E+00
 cg2d: Sum(rhs),rhsMax =  -1.00019036608501E-07  8.66934290835576E+00
 cg2d: Sum(rhs),rhsMax =  -9.99617597585711E-08  8.67430225124478E+00
 cg2d: Sum(rhs),rhsMax =  -9.99047102823170E-08  8.67925494682890E+00
 cg2d: Sum(rhs),rhsMax =  -9.98482363456787E-08  8.68420608713978E+00
 cg2d: Sum(rhs),rhsMax =  -9.97913716105359E-08  8.68916081980566E+00
 cg2d: Sum(rhs),rhsMax =  -9.97343434505638E-08  8.69412416784580E+00
 cg2d: Sum(rhs),rhsMax =  -9.96773295014464E-08  8.69910085245627E+00
 cg2d: Sum(rhs),rhsMax =  -9.96202871306195E-08  8.70409517445086E+00
 cg2d: Sum(rhs),rhsMax =  -9.95629250155616E-08  8.70911095741398E+00
 cg2d: Sum(rhs),rhsMax =  -9.95059110664442E-08  8.71415148969223E+00
 cg2d: Sum(rhs),rhsMax =  -9.94480160443345E-08  8.71921930590513E+00
 cg2d: Sum(rhs),rhsMax =  -9.93902702361993E-08  8.72431607432102E+00
 cg2d: Sum(rhs),rhsMax =  -9.93317215147727E-08  8.72944261226047E+00
 cg2d: Sum(rhs),rhsMax =  -9.92735280647139E-08  8.73459893266904E+00
 cg2d: Sum(rhs),rhsMax =  -9.92147448641845E-08  8.73978430818157E+00
 cg2d: Sum(rhs),rhsMax =  -9.91560966667748E-08  8.74499735837366E+00
 cg2d: Sum(rhs),rhsMax =  -9.90966526615011E-08  8.75023614706347E+00
 cg2d: Sum(rhs),rhsMax =  -9.90366970654577E-08  8.75549829188909E+00
(PID.TID 0000.0001) // =======================================================
(PID.TID 0000.0001) // Begin MONITOR dynamic field statistics
(PID.TID 0000.0001) // =======================================================
(PID.TID 0000.0001) %MON time_tsnumber                =               3600725
(PID.TID 0000.0001) %MON time_secondsf                =   1.5555132000000E+11
(PID.TID 0000.0001) %MON dynstat_eta_max              =   8.5469359756318E-01
(PID.TID 0000.0001) %MON dynstat_eta_min              =  -1.5931284482427E+00
(PID.TID 0000.0001) %MON dynstat_eta_mean             =   3.0214019000803E-11
(PID.TID 0000.0001) %MON dynstat_eta_sd               =   6.1204329727186E-01
(PID.TID 0000.0001) %MON dynstat_eta_del2             =   1.2062516754981E-03
(PID.TID 0000.0001) %MON dynstat_uvel_max             =   3.1374628446249E-01
(PID.TID 0000.0001) %MON dynstat_uvel_min             =  -5.2801543538813E-01
(PID.TID 0000.0001) %MON dynstat_uvel_mean            =   1.7954473633786E-03
(PID.TID 0000.0001) %MON dynstat_uvel_sd              =   1.4448075505623E-02
(PID.TID 0000.0001) %MON dynstat_uvel_del2            =   6.6875682691981E-05
(PID.TID 0000.0001) %MON dynstat_vvel_max             =   2.6232481951515E-01
(PID.TID 0000.0001) %MON dynstat_vvel_min             =  -3.8288838224600E-01
(PID.TID 0000.0001) %MON dynstat_vvel_mean            =  -1.4656194071327E-04
(PID.TID 0000.0001) %MON dynstat_vvel_sd              =   8.3478947363761E-03
(PID.TID 0000.0001) %MON dynstat_vvel_del2            =   5.1010691833538E-05
(PID.TID 0000.0001) %MON dynstat_wvel_max             =   6.1775346382333E-05
(PID.TID 0000.0001) %MON dynstat_wvel_min             =  -5.9523631508880E-05
(PID.TID 0000.0001) %MON dynstat_wvel_mean            =   2.7699610474746E-23
(PID.TID 0000.0001) %MON dynstat_wvel_sd              =   2.3946781368434E-06
(PID.TID 0000.0001) %MON dynstat_wvel_del2            =   1.3018147459712E-08
(PID.TID 0000.0001) %MON dynstat_theta_max            =   3.3767299900616E+01
(PID.TID 0000.0001) %MON dynstat_theta_min            =  -2.3592249096590E+00
(PID.TID 0000.0001) %MON dynstat_theta_mean           =   4.0703558263066E+00
(PID.TID 0000.0001) %MON dynstat_theta_sd             =   4.2457206880735E+00
(PID.TID 0000.0001) %MON dynstat_theta_del2           =   2.6257625797821E-03
(PID.TID 0000.0001) %MON dynstat_salt_max             =   3.7581106010113E+01
(PID.TID 0000.0001) %MON dynstat_salt_min             =   3.1408598686838E+01
(PID.TID 0000.0001) %MON dynstat_salt_mean            =   3.5041057866532E+01
(PID.TID 0000.0001) %MON dynstat_salt_sd              =   3.0797551004491E-01
(PID.TID 0000.0001) %MON dynstat_salt_del2            =   3.6539413624765E-04
(PID.TID 0000.0001) %MON dynstat_sst_max              =   3.3767299900616E+01
(PID.TID 0000.0001) %MON dynstat_sst_min              =  -2.2299812427384E+00
(PID.TID 0000.0001) %MON dynstat_sst_mean             =   1.8738205105146E+01
(PID.TID 0000.0001) %MON dynstat_sst_sd               =   9.3616651929323E+00
(PID.TID 0000.0001) %MON dynstat_sst_del2             =   1.7461978173097E-02
(PID.TID 0000.0001) %MON dynstat_sss_max              =   3.7580989467519E+01
(PID.TID 0000.0001) %MON dynstat_sss_min              =   3.1408598686838E+01
(PID.TID 0000.0001) %MON dynstat_sss_mean             =   3.4886566368202E+01
(PID.TID 0000.0001) %MON dynstat_sss_sd               =   9.3737886182659E-01
(PID.TID 0000.0001) %MON dynstat_sss_del2             =   2.5632059600099E-03
(PID.TID 0000.0001) %MON forcing_qnet_max             =   4.5141985168457E+02
(PID.TID 0000.0001) %MON forcing_qnet_min             =  -2.1149715372721E+02
(PID.TID 0000.0001) %MON forcing_qnet_mean            =  -1.7630796259336E+01
(PID.TID 0000.0001) %MON forcing_qnet_sd              =   1.1560213601412E+02
(PID.TID 0000.0001) %MON forcing_qnet_del2            =   2.7359183351325E-01
(PID.TID 0000.0001) %MON forcing_qsw_max              =   0.0000000000000E+00
(PID.TID 0000.0001) %MON forcing_qsw_min              =   0.0000000000000E+00
(PID.TID 0000.0001) %MON forcing_qsw_mean             =   0.0000000000000E+00
(PID.TID 0000.0001) %MON forcing_qsw_sd               =   0.0000000000000E+00
(PID.TID 0000.0001) %MON forcing_qsw_del2             =   0.0000000000000E+00
(PID.TID 0000.0001) %MON forcing_empmr_max            =   6.6865915471226E-05
(PID.TID 0000.0001) %MON forcing_empmr_min            =  -1.5018765964214E-04
(PID.TID 0000.0001) %MON forcing_empmr_mean           =   7.7320599494484E-09
(PID.TID 0000.0001) %MON forcing_empmr_sd             =   2.3858729798697E-05
(PID.TID 0000.0001) %MON forcing_empmr_del2           =   1.1192342175733E-07
(PID.TID 0000.0001) %MON forcing_fu_max               =   2.6897713144620E-01
(PID.TID 0000.0001) %MON forcing_fu_min               =  -1.5699989100297E-01
(PID.TID 0000.0001) %MON forcing_fu_mean              =   1.7811233337691E-02
(PID.TID 0000.0001) %MON forcing_fu_sd                =   8.9593245934854E-02
(PID.TID 0000.0001) %MON forcing_fu_del2              =   2.4910797724281E-04
(PID.TID 0000.0001) %MON forcing_fv_max               =   1.9879210939010E-01
(PID.TID 0000.0001) %MON forcing_fv_min               =  -1.5983394682407E-01
(PID.TID 0000.0001) %MON forcing_fv_mean              =  -6.3764835747077E-03
(PID.TID 0000.0001) %MON forcing_fv_sd                =   4.4479083004041E-02
(PID.TID 0000.0001) %MON forcing_fv_del2              =   1.7998572662289E-04
(PID.TID 0000.0001) %MON trAdv_CFL_u_max              =   7.2978588408678E-02
(PID.TID 0000.0001) %MON trAdv_CFL_v_max              =   5.2856400843300E-02
(PID.TID 0000.0001) %MON trAdv_CFL_w_max              =   4.0422626088439E-02
(PID.TID 0000.0001) %MON advcfl_uvel_max              =   7.2971261666089E-02
(PID.TID 0000.0001) %MON advcfl_vvel_max              =   5.2898895558420E-02
(PID.TID 0000.0001) %MON advcfl_wvel_max              =   3.9768408694726E-02
(PID.TID 0000.0001) %MON advcfl_W_hf_max              =   4.8063602027398E-02
(PID.TID 0000.0001) %MON pe_b_mean                    =   4.8276139326263E-04
(PID.TID 0000.0001) %MON ke_max                       =   1.4910797783270E-01
(PID.TID 0000.0001) %MON ke_mean                      =   1.3039571956620E-04
(PID.TID 0000.0001) %MON ke_vol                       =   1.2572502945428E+18
(PID.TID 0000.0001) %MON vort_r_min                   =  -9.2014941998399E-07
(PID.TID 0000.0001) %MON vort_r_max                   =   1.3396768073221E-06
(PID.TID 0000.0001) %MON vort_a_mean                  =  -2.3966255162188E-05
(PID.TID 0000.0001) %MON vort_a_sd                    =   7.3206881416201E-05
(PID.TID 0000.0001) %MON vort_p_mean                  =  -2.8692533918785E-05
(PID.TID 0000.0001) %MON vort_p_sd                    =   1.1861215636766E-04
(PID.TID 0000.0001) %MON surfExpan_theta_mean         =  -1.0744599591140E-07
(PID.TID 0000.0001) %MON surfExpan_salt_mean          =   1.2442622465100E-08
(PID.TID 0000.0001) // =======================================================
(PID.TID 0000.0001) // End MONITOR dynamic field statistics
(PID.TID 0000.0001) // =======================================================
(PID.TID 0000.0001) // =======================================================
(PID.TID 0000.0001) // Begin MONITOR ptracer field statistics
(PID.TID 0000.0001) // =======================================================
(PID.TID 0000.0001) %MON trcstat_ptracer01_max        =   2.3001613733527E+00
(PID.TID 0000.0001) %MON trcstat_ptracer01_min        =  -9.5358334199590E-02
(PID.TID 0000.0001) %MON trcstat_ptracer01_mean       =   9.8156576872305E-01
(PID.TID 0000.0001) %MON trcstat_ptracer01_sd         =   1.0905992136353E+00
(PID.TID 0000.0001) %MON trcstat_ptracer01_del2       =   1.7920843706047E-04
(PID.TID 0000.0001) %MON trcstat_ptracer02_max        =   2.4121457759423E+00
(PID.TID 0000.0001) %MON trcstat_ptracer02_min        =  -1.0032564361758E-01
(PID.TID 0000.0001) %MON trcstat_ptracer02_mean       =   1.0312527437200E+00
(PID.TID 0000.0001) %MON trcstat_ptracer02_sd         =   1.1455988033172E+00
(PID.TID 0000.0001) %MON trcstat_ptracer02_del2       =   1.8306374291501E-04
(PID.TID 0000.0001) %MON trcstat_ptracer03_max        =   2.4728653039440E-03
(PID.TID 0000.0001) %MON trcstat_ptracer03_min        =  -8.9563385634337E-05
(PID.TID 0000.0001) %MON trcstat_ptracer03_mean       =   9.6361861143573E-04
(PID.TID 0000.0001) %MON trcstat_ptracer03_sd         =   1.0751041905911E-03
(PID.TID 0000.0001) %MON trcstat_ptracer03_del2       =   2.9809122641895E-07
(PID.TID 0000.0001) %MON trcstat_ptracer04_max        =   9.3549894361094E-04
(PID.TID 0000.0001) %MON trcstat_ptracer04_min        =  -2.4689099107659E-07
(PID.TID 0000.0001) %MON trcstat_ptracer04_mean       =   2.3456774530463E-06
(PID.TID 0000.0001) %MON trcstat_ptracer04_sd         =   2.7771380427996E-05
(PID.TID 0000.0001) %MON trcstat_ptracer04_del2       =   7.3348597152178E-08
(PID.TID 0000.0001) %MON trcstat_ptracer05_max        =   3.8301877541170E-01
(PID.TID 0000.0001) %MON trcstat_ptracer05_min        =  -8.7905519943388E-03
(PID.TID 0000.0001) %MON trcstat_ptracer05_mean       =   8.5214538971644E-02
(PID.TID 0000.0001) %MON trcstat_ptracer05_sd         =   9.5437742332242E-02
(PID.TID 0000.0001) %MON trcstat_ptracer05_del2       =   4.6642882275513E-05
(PID.TID 0000.0001) %MON trcstat_ptracer06_max        =   3.0263315946716E-06
(PID.TID 0000.0001) %MON trcstat_ptracer06_min        =  -3.9759873656395E-11
(PID.TID 0000.0001) %MON trcstat_ptracer06_mean       =   1.0243922684923E-09
(PID.TID 0000.0001) %MON trcstat_ptracer06_sd         =   1.9284169114922E-08
(PID.TID 0000.0001) %MON trcstat_ptracer06_del2       =   9.7673776695458E-11
(PID.TID 0000.0001) %MON trcstat_ptracer07_max        =   3.8301877541170E-01
(PID.TID 0000.0001) %MON trcstat_ptracer07_min        =  -4.9369173398776E-03
(PID.TID 0000.0001) %MON trcstat_ptracer07_mean       =   1.0030865228777E-02
(PID.TID 0000.0001) %MON trcstat_ptracer07_sd         =   4.1727123640173E-02
(PID.TID 0000.0001) %MON trcstat_ptracer07_del2       =   8.5647334968352E-05
(PID.TID 0000.0001) %MON trcstat_ptracer08_max        =   2.3870281880142E+00
(PID.TID 0000.0001) %MON trcstat_ptracer08_min        =  -5.4643614846892E-02
(PID.TID 0000.0001) %MON trcstat_ptracer08_mean       =   9.0481487221520E-02
(PID.TID 0000.0001) %MON trcstat_ptracer08_sd         =   3.7552123702979E-01
(PID.TID 0000.0001) %MON trcstat_ptracer08_del2       =   6.8106029095224E-04
(PID.TID 0000.0001) %MON trcstat_ptracer09_max        =   2.2342012492241E+00
(PID.TID 0000.0001) %MON trcstat_ptracer09_min        =  -5.1961168584003E-02
(PID.TID 0000.0001) %MON trcstat_ptracer09_mean       =   8.2618869526827E-02
(PID.TID 0000.0001) %MON trcstat_ptracer09_sd         =   3.4147632125254E-01
(PID.TID 0000.0001) %MON trcstat_ptracer09_del2       =   6.3113944195233E-04
(PID.TID 0000.0001) // =======================================================
(PID.TID 0000.0001) // End MONITOR ptracer field statistics
(PID.TID 0000.0001) // =======================================================
 cg2d: Sum(rhs),rhsMax =  -9.89772743764661E-08  8.76078107848702E+00
 cg2d: Sum(rhs),rhsMax =  -9.89177024735000E-08  8.76608155580086E+00
 cg2d: Sum(rhs),rhsMax =  -9.88579742511320E-08  8.77139664107964E+00
 cg2d: Sum(rhs),rhsMax =  -9.87977060162848E-08  8.77672320795606E+00
 cg2d: Sum(rhs),rhsMax =  -9.87382264838743E-08  8.78205816635757E+00
(PID.TID 0000.0001) %CHECKPOINT   3600730 ckptA
(PID.TID 0000.0001) boxmean/horflux :  1  1.39440537134830E-02
(PID.TID 0000.0001) boxmean/horflux :  2  1.39443498180928E-02
(PID.TID 0000.0001) boxmean/horflux :  3  1.39447503785889E-02
(PID.TID 0000.0001) boxmean/horflux :  4  1.39438274894089E-02
(PID.TID 0000.0001) boxmean/horflux :  5  1.39424247698536E-02
(PID.TID 0000.0001) boxmean/horflux :  6  1.39413747640971E-02
(PID.TID 0000.0001) boxmean/horflux :  7  1.39404373431507E-02
(PID.TID 0000.0001) boxmean/horflux :  8  1.39400055363344E-02
(PID.TID 0000.0001) boxmean/horflux :  9  1.39394894873616E-02
(PID.TID 0000.0001) boxmean/horflux : 10  1.39403452071397E-02
(PID.TID 0000.0001) boxmean/horflux : 11  1.39422882997538E-02
(PID.TID 0000.0001) boxmean/horflux : 12  1.39448201471868E-02
(PID.TID 0000.0001) boxmean/horflux : 13  1.39470459812751E-02
(PID.TID 0000.0001) boxmean/horflux fc : 1.81255212935726E-01
(PID.TID 0000.0001)  --> f_gencost = 0.181255212935726E+00 1
(PID.TID 0000.0001)  --> fc               = 0.181255212935726E+09
(PID.TID 0000.0001)   early fc =  0.000000000000000E+00
(PID.TID 0000.0001)   local fc =  0.000000000000000E+00
(PID.TID 0000.0001)  global fc =  0.181255212935726E+09
 DIC_SURFFORCING_INIT, it=   3600000 : Reading new data, i0,i1=   12    1
 QQ: pCO2 approximation method
 QQ first guess pH 8.2869849781645275,  7.129213793781922,  34.1535348423009,  2.0282,  5.43799999999999991E-4,  8.08490416966378689E-3,  2.3086000000000002
(PID.TID 0000.0001) // =======================================================
(PID.TID 0000.0001) // Model current state
(PID.TID 0000.0001) // =======================================================
(PID.TID 0000.0001) 
 DIC_SURFFORCING_INIT, it=   3600000 : Reading new data, i0,i1=   12    1
 QQ: pCO2 approximation method
 QQ first guess pH 8.2869849781645275,  7.129213793781922,  34.1535348423009,  2.0282,  5.43799999999999991E-4,  8.08490416966378689E-3,  2.3086000000000002
(PID.TID 0000.0001) // =======================================================
(PID.TID 0000.0001) // Model current state
(PID.TID 0000.0001) // =======================================================
(PID.TID 0000.0001) 
 EXTERNAL_FIELDS_LOAD, it=   3600000 : Reading new data, i0,i1=   12    1 (prev=   12    0 )
 DIC_FIELDS_LOAD, it=   3600000 : Reading new data, i0,i1=   12    1 (prev=   12    0 )
 cg2d: Sum(rhs),rhsMax =  -9.92433868418630E-08  8.73439671821315E+00
 cg2d: Sum(rhs),rhsMax =  -9.91844260056496E-08  8.73957958587058E+00
 cg2d: Sum(rhs),rhsMax =  -9.91252449011881E-08  8.74478969091806E+00
 cg2d: Sum(rhs),rhsMax =  -9.90665185440776E-08  8.75002495477880E+00
 cg2d: Sum(rhs),rhsMax =  -9.90068542705558E-08  8.75528284057604E+00
 cg2d: Sum(rhs),rhsMax =  -9.89473534218632E-08  8.76056047500076E+00
 cg2d: Sum(rhs),rhsMax =  -9.88878241514612E-08  8.76585475900637E+00
 cg2d: Sum(rhs),rhsMax =  -9.88279893476829E-08  8.77116249138180E+00
 cg2d: Sum(rhs),rhsMax =  -9.87682469144602E-08  8.77648047471154E+00
 cg2d: Sum(rhs),rhsMax =  -9.87087602766223E-08  8.78180560756084E+00
 cg2d: Sum(rhs),rhsMax =  -9.86489112619893E-08  8.78713494778165E+00
 cg2d: Sum(rhs),rhsMax =  -9.85891404070571E-08  8.79246575399440E+00
 cg2d: Sum(rhs),rhsMax =  -9.85293340249882E-08  8.79779549299699E+00
 cg2d: Sum(rhs),rhsMax =  -9.84700747608258E-08  8.80312181092759E+00
 cg2d: Sum(rhs),rhsMax =  -9.84108581292276E-08  8.80844249631459E+00
 cg2d: Sum(rhs),rhsMax =  -9.83516486030567E-08  8.81375547068360E+00
 cg2d: Sum(rhs),rhsMax =  -9.82926522397065E-08  8.81905885446822E+00
 cg2d: Sum(rhs),rhsMax =  -9.82337553523394E-08  8.82435106608147E+00
 cg2d: Sum(rhs),rhsMax =  -9.81751568929212E-08  8.82963093738125E+00
 cg2d: Sum(rhs),rhsMax =  -9.81166650149135E-08  8.83489782452132E+00
 cg2d: Sum(rhs),rhsMax =  -9.80585213028462E-08  8.84015168145881E+00
 cg2d: Sum(rhs),rhsMax =  -9.80007470730015E-08  8.84539306572338E+00
 cg2d: Sum(rhs),rhsMax =  -9.79429586323022E-08  8.85062306296846E+00
 cg2d: Sum(rhs),rhsMax =  -9.78853904598509E-08  8.85584316140559E+00
 cg2d: Sum(rhs),rhsMax =  -9.78280425556477E-08  8.86105508303604E+00
 cg2d: Sum(rhs),rhsMax =  -9.77709291305473E-08  8.86626061391844E+00
 cg2d: Sum(rhs),rhsMax =  -9.77132472712583E-08  8.87146147123075E+00
 cg2d: Sum(rhs),rhsMax =  -9.76563327981239E-08  8.87665923110881E+00
 cg2d: Sum(rhs),rhsMax =  -9.75990843699037E-08  8.88185530584736E+00
 cg2d: Sum(rhs),rhsMax =  -9.75420704207863E-08  8.88705095973601E+00
 EXTERNAL_FIELDS_LOAD, it=   3600030 : Reading new data, i0,i1=    1    2 (prev=   12    1 )
 DIC_FIELDS_LOAD, it=   3600030 : Reading new data, i0,i1=    1    2 (prev=   12    1 )
 cg2d: Sum(rhs),rhsMax =  -9.74853406887632E-08  8.89224735691429E+00
 cg2d: Sum(rhs),rhsMax =  -9.74287814869967E-08  8.89742706375180E+00
 cg2d: Sum(rhs),rhsMax =  -9.73723857100595E-08  8.90258000132907E+00
 cg2d: Sum(rhs),rhsMax =  -9.73164659967551E-08  8.90769672951691E+00
 cg2d: Sum(rhs),rhsMax =  -9.72612284044772E-08  8.91276878246959E+00
 cg2d: Sum(rhs),rhsMax =  -9.72070637317302E-08  8.91778889429735E+00
 cg2d: Sum(rhs),rhsMax =  -9.71530482729577E-08  8.92275113682099E+00
 cg2d: Sum(rhs),rhsMax =  -9.70993241367069E-08  8.92765100404361E+00
 cg2d: Sum(rhs),rhsMax =  -9.70471916161841E-08  8.93248545016401E+00
 cg2d: Sum(rhs),rhsMax =  -9.69955280538670E-08  8.93725287491615E+00
 cg2d: Sum(rhs),rhsMax =  -9.69441273923621E-08  8.94195305183593E+00
 cg2d: Sum(rhs),rhsMax =  -9.68941833434656E-08  8.94658701582531E+00
 cg2d: Sum(rhs),rhsMax =  -9.68450208915783E-08  8.95115692214719E+00
 cg2d: Sum(rhs),rhsMax =  -9.67962705544778E-08  8.95566589123099E+00
 cg2d: Sum(rhs),rhsMax =  -9.67482165492584E-08  8.96011786358850E+00
 cg2d: Sum(rhs),rhsMax =  -9.67008020325011E-08  8.96451747891563E+00
 cg2d: Sum(rhs),rhsMax =  -9.66539346336504E-08  8.96886998187158E+00
 cg2d: Sum(rhs),rhsMax =  -9.66078843589457E-08  8.97318115409823E+00
 cg2d: Sum(rhs),rhsMax =  -9.65621254067628E-08  8.97745726495199E+00
 cg2d: Sum(rhs),rhsMax =  -9.65159685506478E-08  8.98170502198163E+00
 cg2d: Sum(rhs),rhsMax =  -9.64709272466280E-08  8.98593151889555E+00
 cg2d: Sum(rhs),rhsMax =  -9.64258006774799E-08  8.99014423145949E+00
 cg2d: Sum(rhs),rhsMax =  -9.63806954246138E-08  8.99435085408351E+00
 cg2d: Sum(rhs),rhsMax =  -9.63354978011921E-08  8.99855914272681E+00
 cg2d: Sum(rhs),rhsMax =  -9.62904493917449E-08  9.00277662786875E+00
 cg2d: Sum(rhs),rhsMax =  -9.62449746566563E-08  9.00700998220796E+00
 cg2d: Sum(rhs),rhsMax =  -9.61997557169525E-08  9.01126574761483E+00
 cg2d: Sum(rhs),rhsMax =  -9.61540180810516E-08  9.01555039729210E+00
 cg2d: Sum(rhs),rhsMax =  -9.61077120109621E-08  9.01986971435378E+00
 cg2d: Sum(rhs),rhsMax =  -9.60613775191632E-08  9.02422880815445E+00
 cg2d: Sum(rhs),rhsMax =  -9.60143182737738E-08  9.02863205182447E+00
 cg2d: Sum(rhs),rhsMax =  -9.59668398081703E-08  9.03308295193821E+00
 cg2d: Sum(rhs),rhsMax =  -9.59189492277801E-08  9.03758400719746E+00
 cg2d: Sum(rhs),rhsMax =  -9.58706323217484E-08  9.04213663854453E+00
 cg2d: Sum(rhs),rhsMax =  -9.58215622404168E-08  9.04674109185253E+00
 cg2d: Sum(rhs),rhsMax =  -9.57721724148541E-08  9.05139640217902E+00
 cg2d: Sum(rhs),rhsMax =  -9.57223775799321E-08  9.05610040614876E+00
 cg2d: Sum(rhs),rhsMax =  -9.56718224642827E-08  9.06084979109159E+00
 cg2d: Sum(rhs),rhsMax =  -9.56211039238042E-08  9.06564017672268E+00
 cg2d: Sum(rhs),rhsMax =  -9.55700798499493E-08  9.07046622792088E+00
 cg2d: Sum(rhs),rhsMax =  -9.55189918272481E-08  9.07532179655311E+00
 cg2d: Sum(rhs),rhsMax =  -9.54672145780933E-08  9.08020008054443E+00
 cg2d: Sum(rhs),rhsMax =  -9.54156860188959E-08  9.08509379067778E+00
 cg2d: Sum(rhs),rhsMax =  -9.53640864054250E-08  9.08999532389517E+00
 cg2d: Sum(rhs),rhsMax =  -9.53120391500306E-08  9.09489685062687E+00
 cg2d: Sum(rhs),rhsMax =  -9.52604963799786E-08  9.09979078670731E+00
 cg2d: Sum(rhs),rhsMax =  -9.52091738781746E-08  9.10466952325132E+00
 cg2d: Sum(rhs),rhsMax =  -9.51581995423112E-08  9.10952586151125E+00
 cg2d: Sum(rhs),rhsMax =  -9.51075378452515E-08  9.11435305322486E+00
 cg2d: Sum(rhs),rhsMax =  -9.50568974644739E-08  9.11914489544444E+00
 cg2d: Sum(rhs),rhsMax =  -9.50070173644235E-08  9.12389583482653E+00
 cg2d: Sum(rhs),rhsMax =  -9.49582670273230E-08  9.12860106773695E+00
 cg2d: Sum(rhs),rhsMax =  -9.49094669522310E-08  9.13325671324743E+00
 cg2d: Sum(rhs),rhsMax =  -9.48612637330370E-08  9.13785989332165E+00
 cg2d: Sum(rhs),rhsMax =  -9.48139060596986E-08  9.14240888612431E+00
 cg2d: Sum(rhs),rhsMax =  -9.47671381368309E-08  9.14690322805975E+00
 cg2d: Sum(rhs),rhsMax =  -9.47210025969980E-08  9.15134376400067E+00
 cg2d: Sum(rhs),rhsMax =  -9.46753857533622E-08  9.15573262291172E+00
 cg2d: Sum(rhs),rhsMax =  -9.46305078741716E-08  9.16007311317651E+00
 cg2d: Sum(rhs),rhsMax =  -9.45855020972886E-08  9.16436954661381E+00
 EXTERNAL_FIELDS_LOAD, it=   3600090 : Reading new data, i0,i1=    2    3 (prev=    1    2 )
 DIC_FIELDS_LOAD, it=   3600090 : Reading new data, i0,i1=    2    3 (prev=    1    2 )
 cg2d: Sum(rhs),rhsMax =  -9.45416047670733E-08  9.16862700792054E+00
 cg2d: Sum(rhs),rhsMax =  -9.44977784911316E-08  9.17286965792043E+00
 cg2d: Sum(rhs),rhsMax =  -9.44538882663437E-08  9.17711460232796E+00
 cg2d: Sum(rhs),rhsMax =  -9.44097777733077E-08  9.18137827264839E+00
 cg2d: Sum(rhs),rhsMax =  -9.43655606988614E-08  9.18567586102450E+00
 cg2d: Sum(rhs),rhsMax =  -9.43208533499273E-08  9.19002086507332E+00
 cg2d: Sum(rhs),rhsMax =  -9.42755065125311E-08  9.19442473147613E+00
 cg2d: Sum(rhs),rhsMax =  -9.42294988703907E-08  9.19889660310093E+00
 cg2d: Sum(rhs),rhsMax =  -9.41831217460276E-08  9.20344317156002E+00
 cg2d: Sum(rhs),rhsMax =  -9.41357711781166E-08  9.20806863385625E+00
 cg2d: Sum(rhs),rhsMax =  -9.40875679589226E-08  9.21277472508850E+00
 cg2d: Sum(rhs),rhsMax =  -9.40387323566938E-08  9.21756082935263E+00
 cg2d: Sum(rhs),rhsMax =  -9.39891506845925E-08  9.22242415169496E+00
 cg2d: Sum(rhs),rhsMax =  -9.39387589937724E-08  9.22735992735964E+00
 cg2d: Sum(rhs),rhsMax =  -9.38874578082505E-08  9.23236166048178E+00
 cg2d: Sum(rhs),rhsMax =  -9.38360713576003E-08  9.23742136926884E+00
 cg2d: Sum(rhs),rhsMax =  -9.37847204340869E-08  9.24252982829311E+00
 cg2d: Sum(rhs),rhsMax =  -9.37326518624104E-08  9.24767682825910E+00
 cg2d: Sum(rhs),rhsMax =  -9.36799651185538E-08  9.25285135651627E+00
 cg2d: Sum(rhs),rhsMax =  -9.36278468088858E-08  9.25804181556396E+00
 cg2d: Sum(rhs),rhsMax =  -9.35753803332773E-08  9.26323624437734E+00
 cg2d: Sum(rhs),rhsMax =  -9.35233543941649E-08  9.26842252954541E+00
 cg2d: Sum(rhs),rhsMax =  -9.34712076627875E-08  9.27358855590945E+00
 cg2d: Sum(rhs),rhsMax =  -9.34198851609835E-08  9.27872221865362E+00
 cg2d: Sum(rhs),rhsMax =  -9.33687331894362E-08  9.28381269175841E+00
 cg2d: Sum(rhs),rhsMax =  -9.33183130769066E-08  9.28884990364347E+00
 cg2d: Sum(rhs),rhsMax =  -9.32684542931383E-08  9.29382460831193E+00
 cg2d: Sum(rhs),rhsMax =  -9.32194410552256E-08  9.29872876125425E+00
 cg2d: Sum(rhs),rhsMax =  -9.31711383600486E-08  9.30355578941157E+00
 cg2d: Sum(rhs),rhsMax =  -9.31240364820951E-08  9.30830071441787E+00
 cg2d: Sum(rhs),rhsMax =  -9.30773893514925E-08  9.31296016039586E+00
 cg2d: Sum(rhs),rhsMax =  -9.30318719838397E-08  9.31753230345820E+00
 cg2d: Sum(rhs),rhsMax =  -9.29872783217434E-08  9.32201677457960E+00
 cg2d: Sum(rhs),rhsMax =  -9.29437931063148E-08  9.32641453687162E+00
 cg2d: Sum(rhs),rhsMax =  -9.29007910599466E-08  9.33072777407330E+00
 cg2d: Sum(rhs),rhsMax =  -9.28590253579387E-08  9.33495977832897E+00
 cg2d: Sum(rhs),rhsMax =  -9.28177001924269E-08  9.33911483571782E+00
 cg2d: Sum(rhs),rhsMax =  -9.27770358316593E-08  9.34319809772528E+00
 cg2d: Sum(rhs),rhsMax =  -9.27373591252945E-08  9.34721542637213E+00
 cg2d: Sum(rhs),rhsMax =  -9.26982295368362E-08  9.35117321728378E+00
 cg2d: Sum(rhs),rhsMax =  -9.26594978523099E-08  9.35507820898651E+00
 cg2d: Sum(rhs),rhsMax =  -9.26212777585533E-08  9.35893728101038E+00
 cg2d: Sum(rhs),rhsMax =  -9.25836900478316E-08  9.36275724876052E+00
 cg2d: Sum(rhs),rhsMax =  -9.25467347201447E-08  9.36654466497940E+00
 cg2d: Sum(rhs),rhsMax =  -9.25093388559617E-08  9.37030563739009E+00
 cg2d: Sum(rhs),rhsMax =  -9.24723693174201E-08  9.37404566529748E+00
 cg2d: Sum(rhs),rhsMax =  -9.24358261045199E-08  9.37776950669782E+00
 cg2d: Sum(rhs),rhsMax =  -9.23998015878169E-08  9.38148107939576E+00
 cg2d: Sum(rhs),rhsMax =  -9.23633649563271E-08  9.38518340080342E+00
 cg2d: Sum(rhs),rhsMax =  -9.23271628039402E-08  9.38887856431341E+00
 cg2d: Sum(rhs),rhsMax =  -9.22907545941598E-08  9.39256775253961E+00
 cg2d: Sum(rhs),rhsMax =  -9.22549361348501E-08  9.39625127829926E+00
 cg2d: Sum(rhs),rhsMax =  -9.22186487173349E-08  9.39992865313115E+00
 cg2d: Sum(rhs),rhsMax =  -9.21831713185384E-08  9.40359867110262E+00
 cg2d: Sum(rhs),rhsMax =  -9.21473457538013E-08  9.40725949891390E+00
 cg2d: Sum(rhs),rhsMax =  -9.21119038821416E-08  9.41090875978471E+00
 cg2d: Sum(rhs),rhsMax =  -9.20763412182168E-08  9.41454361858659E+00
 cg2d: Sum(rhs),rhsMax =  -9.20410343496769E-08  9.41816086827301E+00
 cg2d: Sum(rhs),rhsMax =  -9.20060685416502E-08  9.42175701532902E+00
 cg2d: Sum(rhs),rhsMax =  -9.19711879987517E-08  9.42532836100955E+00
 EXTERNAL_FIELDS_LOAD, it=   3600150 : Reading new data, i0,i1=    3    4 (prev=    2    3 )
 DIC_FIELDS_LOAD, it=   3600150 : Reading new data, i0,i1=    3    4 (prev=    2    3 )
 cg2d: Sum(rhs),rhsMax =  -9.19367622032041E-08  9.42887108055882E+00
 cg2d: Sum(rhs),rhsMax =  -9.19030327395376E-08  9.43235832256638E+00
 cg2d: Sum(rhs),rhsMax =  -9.18696727580937E-08  9.43577294710938E+00
 cg2d: Sum(rhs),rhsMax =  -9.18375349101552E-08  9.43909901719340E+00
 cg2d: Sum(rhs),rhsMax =  -9.18056457521743E-08  9.44232226351574E+00
 cg2d: Sum(rhs),rhsMax =  -9.17754618967592E-08  9.44543045713848E+00
 cg2d: Sum(rhs),rhsMax =  -9.17468696570722E-08  9.44841368652191E+00
 cg2d: Sum(rhs),rhsMax =  -9.17188671678559E-08  9.45126453300903E+00
 cg2d: Sum(rhs),rhsMax =  -9.16929749905648E-08  9.45397814472091E+00
 cg2d: Sum(rhs),rhsMax =  -9.16680278351123E-08  9.45655223330268E+00
 cg2d: Sum(rhs),rhsMax =  -9.16445941356869E-08  9.45898700078271E+00
 cg2d: Sum(rhs),rhsMax =  -9.16223754643397E-08  9.46128500172268E+00
 cg2d: Sum(rhs),rhsMax =  -9.16011231311131E-08  9.46345095767279E+00
 cg2d: Sum(rhs),rhsMax =  -9.15811568802383E-08  9.46549153513779E+00
 cg2d: Sum(rhs),rhsMax =  -9.15625619768434E-08  9.46741508859273E+00
 cg2d: Sum(rhs),rhsMax =  -9.15451252581079E-08  9.46923137659912E+00
 cg2d: Sum(rhs),rhsMax =  -9.15285980340741E-08  9.47095124324780E+00
 cg2d: Sum(rhs),rhsMax =  -9.15126108225195E-08  9.47258633929544E+00
 cg2d: Sum(rhs),rhsMax =  -9.14974762622478E-08  9.47414881667898E+00
 cg2d: Sum(rhs),rhsMax =  -9.14831588261222E-08  9.47565102854520E+00
 cg2d: Sum(rhs),rhsMax =  -9.14691185016636E-08  9.47710524161440E+00
 cg2d: Sum(rhs),rhsMax =  -9.14552913400257E-08  9.47852337330871E+00
 cg2d: Sum(rhs),rhsMax =  -9.14417910280463E-08  9.47991675839448E+00
 cg2d: Sum(rhs),rhsMax =  -9.14288023068366E-08  9.48129594936036E+00
 cg2d: Sum(rhs),rhsMax =  -9.14153162057119E-08  9.48267055268677E+00
 cg2d: Sum(rhs),rhsMax =  -9.14016951014673E-08  9.48404910672501E+00
 cg2d: Sum(rhs),rhsMax =  -9.13883866360266E-08  9.48543898881096E+00
 cg2d: Sum(rhs),rhsMax =  -9.13749147457565E-08  9.48684634838855E+00
 cg2d: Sum(rhs),rhsMax =  -9.13611231112554E-08  9.48827608016959E+00
 cg2d: Sum(rhs),rhsMax =  -9.13465854068818E-08  9.48973182637241E+00
 cg2d: Sum(rhs),rhsMax =  -9.13324456064402E-08  9.49121598932757E+00
 cg2d: Sum(rhs),rhsMax =  -9.13176805283911E-08  9.49272976482376E+00
 cg2d: Sum(rhs),rhsMax =  -9.13029793991882E-08  9.49427318407705E+00
 cg2d: Sum(rhs),rhsMax =  -9.12876600978052E-08  9.49584517202971E+00
 cg2d: Sum(rhs),rhsMax =  -9.12722768475760E-08  9.49744362566448E+00
 cg2d: Sum(rhs),rhsMax =  -9.12563962174318E-08  9.49906550905340E+00
 cg2d: Sum(rhs),rhsMax =  -9.12406292741252E-08  9.50070696299551E+00
 cg2d: Sum(rhs),rhsMax =  -9.12245567974423E-08  9.50236342680402E+00
 cg2d: Sum(rhs),rhsMax =  -9.12086122184519E-08  9.50402976802920E+00
 cg2d: Sum(rhs),rhsMax =  -9.11920636781360E-08  9.50570042893596E+00
 cg2d: Sum(rhs),rhsMax =  -9.11760835720088E-08  9.50736956748404E+00
 cg2d: Sum(rhs),rhsMax =  -9.11599897790438E-08  9.50903122489705E+00
 cg2d: Sum(rhs),rhsMax =  -9.11439812512072E-08  9.51067944299842E+00
 cg2d: Sum(rhs),rhsMax =  -9.11286619498242E-08  9.51230836255520E+00
 cg2d: Sum(rhs),rhsMax =  -9.11128452685261E-08  9.51391232343393E+00
 cg2d: Sum(rhs),rhsMax =  -9.10978172896648E-08  9.51548598638282E+00
 cg2d: Sum(rhs),rhsMax =  -9.10825903588375E-08  9.51702443978652E+00
 cg2d: Sum(rhs),rhsMax =  -9.10679744947629E-08  9.51852327194360E+00
 cg2d: Sum(rhs),rhsMax =  -9.10538062726118E-08  9.51997861079381E+00
 cg2d: Sum(rhs),rhsMax =  -9.10403272769145E-08  9.52138713289450E+00
 cg2d: Sum(rhs),rhsMax =  -9.10271680254482E-08  9.52274605554116E+00
 cg2d: Sum(rhs),rhsMax =  -9.10143498344951E-08  9.52405313717331E+00
 cg2d: Sum(rhs),rhsMax =  -9.10022919242692E-08  9.52530666028232E+00
 cg2d: Sum(rhs),rhsMax =  -9.09905324419924E-08  9.52650541109617E+00
 cg2d: Sum(rhs),rhsMax =  -9.09794692915966E-08  9.52764864727963E+00
 cg2d: Sum(rhs),rhsMax =  -9.09689816808168E-08  9.52873605079492E+00
 cg2d: Sum(rhs),rhsMax =  -9.09588422359775E-08  9.52976767849440E+00
 cg2d: Sum(rhs),rhsMax =  -9.09493280687457E-08  9.53074391639987E+00
 cg2d: Sum(rhs),rhsMax =  -9.09404391791213E-08  9.53166530103624E+00
 cg2d: Sum(rhs),rhsMax =  -9.09316284491979E-08  9.53253252588939E+00
 EXTERNAL_FIELDS_LOAD, it=   3600210 : Reading new data, i0,i1=    4    5 (prev=    3    4 )
 DIC_FIELDS_LOAD, it=   3600210 : Reading new data, i0,i1=    4    5 (prev=    3    4 )
 cg2d: Sum(rhs),rhsMax =  -9.09236845814121E-08  9.53334634295211E+00
 cg2d: Sum(rhs),rhsMax =  -9.09162238826866E-08  9.53412016630968E+00
 cg2d: Sum(rhs),rhsMax =  -9.09088555545168E-08  9.53486144691540E+00
 cg2d: Sum(rhs),rhsMax =  -9.09020556605356E-08  9.53557668814411E+00
 cg2d: Sum(rhs),rhsMax =  -9.08950781308704E-08  9.53626990934916E+00
 cg2d: Sum(rhs),rhsMax =  -9.08885269268467E-08  9.53694479201801E+00
 cg2d: Sum(rhs),rhsMax =  -9.08819686173956E-08  9.53760402798875E+00
 cg2d: Sum(rhs),rhsMax =  -9.08758792661502E-08  9.53824943192211E+00
 cg2d: Sum(rhs),rhsMax =  -9.08692001644340E-08  9.53888215688552E+00
 cg2d: Sum(rhs),rhsMax =  -9.08633310814366E-08  9.53950304357000E+00
 cg2d: Sum(rhs),rhsMax =  -9.08575117364308E-08  9.54011304176576E+00
 cg2d: Sum(rhs),rhsMax =  -9.08516142317239E-08  9.54071301635899E+00
 cg2d: Sum(rhs),rhsMax =  -9.08458943627011E-08  9.54130322912294E+00
 cg2d: Sum(rhs),rhsMax =  -9.08400252797037E-08  9.54188272003942E+00
 cg2d: Sum(rhs),rhsMax =  -9.08349306882883E-08  9.54244934290944E+00
 cg2d: Sum(rhs),rhsMax =  -9.08295305634965E-08  9.54299999628384E+00
 cg2d: Sum(rhs),rhsMax =  -9.08241872821236E-08  9.54353092308816E+00
 cg2d: Sum(rhs),rhsMax =  -9.08189861092978E-08  9.54403796863502E+00
 cg2d: Sum(rhs),rhsMax =  -9.08142894218145E-08  9.54451678452915E+00
 cg2d: Sum(rhs),rhsMax =  -9.08097916862971E-08  9.54496303374895E+00
 cg2d: Sum(rhs),rhsMax =  -9.08056705384297E-08  9.54537256688658E+00
 cg2d: Sum(rhs),rhsMax =  -9.08016417611179E-08  9.54574155534994E+00
 cg2d: Sum(rhs),rhsMax =  -9.07979256226099E-08  9.54606657177462E+00
 cg2d: Sum(rhs),rhsMax =  -9.07952681927782E-08  9.54634467959792E+00
 cg2d: Sum(rhs),rhsMax =  -9.07924189164078E-08  9.54657345840157E+00
 cg2d: Sum(rhs),rhsMax =  -9.07902162339269E-08  9.54675102924543E+00
 cg2d: Sum(rhs),rhsMax =  -9.07886743561903E-08  9.54687605379506E+00
 cg2d: Sum(rhs),rhsMax =  -9.07877648614885E-08  9.54694771403842E+00
 cg2d: Sum(rhs),rhsMax =  -9.07869193156330E-08  9.54696566951997E+00
 cg2d: Sum(rhs),rhsMax =  -9.07865995714019E-08  9.54692999068711E+00
 cg2d: Sum(rhs),rhsMax =  -9.07872106381546E-08  9.54684108541375E+00
 cg2d: Sum(rhs),rhsMax =  -9.07884682987969E-08  9.54669963264824E+00
 cg2d: Sum(rhs),rhsMax =  -9.07898467517043E-08  9.54650651972953E+00
 cg2d: Sum(rhs),rhsMax =  -9.07915449488428E-08  9.54626274758502E+00
 cg2d: Sum(rhs),rhsMax =  -9.07941455352557E-08  9.54596935750525E+00
 cg2d: Sum(rhs),rhsMax =  -9.07970800767544E-08  9.54562738075971E+00
 cg2d: Sum(rhs),rhsMax =  -9.08000501453898E-08  9.54523778248193E+00
 cg2d: Sum(rhs),rhsMax =  -9.08038089164620E-08  9.54480140259877E+00
 cg2d: Sum(rhs),rhsMax =  -9.08078732209106E-08  9.54431888382345E+00
 cg2d: Sum(rhs),rhsMax =  -9.08128896526250E-08  9.54379063440704E+00
 cg2d: Sum(rhs),rhsMax =  -9.08179274006216E-08  9.54321682610369E+00
 cg2d: Sum(rhs),rhsMax =  -9.08231072571652E-08  9.54259741627488E+00
 cg2d: Sum(rhs),rhsMax =  -9.08294239820862E-08  9.54193218180504E+00
 cg2d: Sum(rhs),rhsMax =  -9.08357407070071E-08  9.54122075566689E+00
 cg2d: Sum(rhs),rhsMax =  -9.08426116552619E-08  9.54046266149910E+00
 cg2d: Sum(rhs),rhsMax =  -9.08497668206110E-08  9.53965734943055E+00
 cg2d: Sum(rhs),rhsMax =  -9.08576467395505E-08  9.53880424419014E+00
 cg2d: Sum(rhs),rhsMax =  -9.08659032461401E-08  9.53790282192021E+00
 cg2d: Sum(rhs),rhsMax =  -9.08746713434994E-08  9.53695268180845E+00
 cg2d: Sum(rhs),rhsMax =  -9.08840078750472E-08  9.53595362230667E+00
 cg2d: Sum(rhs),rhsMax =  -9.08936215182621E-08  9.53490571447803E+00
 cg2d: Sum(rhs),rhsMax =  -9.09042654484438E-08  9.53380930168364E+00
 cg2d: Sum(rhs),rhsMax =  -9.09145470018302E-08  9.53266493640869E+00
 cg2d: Sum(rhs),rhsMax =  -9.09259227910297E-08  9.53147332889492E+00
 cg2d: Sum(rhs),rhsMax =  -9.09384141323244E-08  9.53023537646442E+00
 cg2d: Sum(rhs),rhsMax =  -9.09505217805417E-08  9.52895220993865E+00
 cg2d: Sum(rhs),rhsMax =  -9.09629278567081E-08  9.52762520262973E+00
 cg2d: Sum(rhs),rhsMax =  -9.09757815747980E-08  9.52625594300855E+00
 cg2d: Sum(rhs),rhsMax =  -9.09892747813501E-08  9.52484621149773E+00
 cg2d: Sum(rhs),rhsMax =  -9.10029882561503E-08  9.52339794221070E+00
 EXTERNAL_FIELDS_LOAD, it=   3600270 : Reading new data, i0,i1=    5    6 (prev=    4    5 )
 DIC_FIELDS_LOAD, it=   3600270 : Reading new data, i0,i1=    5    6 (prev=    4    5 )
 cg2d: Sum(rhs),rhsMax =  -9.10169930534721E-08  9.52191318167782E+00
 cg2d: Sum(rhs),rhsMax =  -9.10311257484864E-08  9.52041761022813E+00
 cg2d: Sum(rhs),rhsMax =  -9.10455213443129E-08  9.51892843351038E+00
 cg2d: Sum(rhs),rhsMax =  -9.10593485059508E-08  9.51746258399289E+00
 cg2d: Sum(rhs),rhsMax =  -9.10729625047679E-08  9.51603636817957E+00
 cg2d: Sum(rhs),rhsMax =  -9.10860507019606E-08  9.51466517931999E+00
 cg2d: Sum(rhs),rhsMax =  -9.10986344138109E-08  9.51336322967766E+00
 cg2d: Sum(rhs),rhsMax =  -9.11102233658312E-08  9.51214329321166E+00
 cg2d: Sum(rhs),rhsMax =  -9.11212367782355E-08  9.51101645114812E+00
 cg2d: Sum(rhs),rhsMax =  -9.11308219997409E-08  9.50999185515969E+00
 cg2d: Sum(rhs),rhsMax =  -9.11397606273567E-08  9.50907652378690E+00
 cg2d: Sum(rhs),rhsMax =  -9.11473847509114E-08  9.50827517814543E+00
 cg2d: Sum(rhs),rhsMax =  -9.11540354309182E-08  9.50759014752173E+00
 cg2d: Sum(rhs),rhsMax =  -9.11595421371203E-08  9.50702134377118E+00
 cg2d: Sum(rhs),rhsMax =  -9.11640682943471E-08  9.50656629011210E+00
 cg2d: Sum(rhs),rhsMax =  -9.11673012637948E-08  9.50622019182364E+00
 cg2d: Sum(rhs),rhsMax =  -9.11696744765322E-08  9.50597606771963E+00
 cg2d: Sum(rhs),rhsMax =  -9.11708539774736E-08  9.50582494250500E+00
 cg2d: Sum(rhs),rhsMax =  -9.11716497853376E-08  9.50575608648473E+00
 cg2d: Sum(rhs),rhsMax =  -9.11714224116622E-08  9.50575729587021E+00
 cg2d: Sum(rhs),rhsMax =  -9.11708468720462E-08  9.50581523373235E+00
 cg2d: Sum(rhs),rhsMax =  -9.11699018502077E-08  9.50591575069248E+00
 cg2d: Sum(rhs),rhsMax =  -9.11685589244371E-08  9.50604420974297E+00
 cg2d: Sum(rhs),rhsMax =  -9.11669744141363E-08  9.50618583284504E+00
 cg2d: Sum(rhs),rhsMax =  -9.11656883317846E-08  9.50632606101357E+00
 cg2d: Sum(rhs),rhsMax =  -9.11643525114414E-08  9.50645090757042E+00
 cg2d: Sum(rhs),rhsMax =  -9.11635567035773E-08  9.50654729113363E+00
 cg2d: Sum(rhs),rhsMax =  -9.11632938027651E-08  9.50660334354173E+00
 cg2d: Sum(rhs),rhsMax =  -9.11633009081925E-08  9.50660868062301E+00
 cg2d: Sum(rhs),rhsMax =  -9.11639332912273E-08  9.50655462562515E+00
 cg2d: Sum(rhs),rhsMax =  -9.11649706836215E-08  9.50643436311089E+00
 cg2d: Sum(rhs),rhsMax =  -9.11672302095212E-08  9.50624304674150E+00
 cg2d: Sum(rhs),rhsMax =  -9.11696460548228E-08  9.50597781905916E+00
 cg2d: Sum(rhs),rhsMax =  -9.11727440211507E-08  9.50563777710892E+00
 cg2d: Sum(rhs),rhsMax =  -9.11770854372662E-08  9.50522393135291E+00
 cg2d: Sum(rhs),rhsMax =  -9.11816186999204E-08  9.50473911463816E+00
 cg2d: Sum(rhs),rhsMax =  -9.11870614572763E-08  9.50418773930678E+00
 cg2d: Sum(rhs),rhsMax =  -9.11928168534359E-08  9.50357558691374E+00
 cg2d: Sum(rhs),rhsMax =  -9.11992827923314E-08  9.50290964447458E+00
 cg2d: Sum(rhs),rhsMax =  -9.12065729608003E-08  9.50219791542795E+00
 cg2d: Sum(rhs),rhsMax =  -9.12139270781154E-08  9.50144918276843E+00
 cg2d: Sum(rhs),rhsMax =  -9.12212811954305E-08  9.50067274580360E+00
 cg2d: Sum(rhs),rhsMax =  -9.12293955934729E-08  9.49987815929010E+00
 cg2d: Sum(rhs),rhsMax =  -9.12369131356172E-08  9.49907498366882E+00
 cg2d: Sum(rhs),rhsMax =  -9.12447788437021E-08  9.49827255755378E+00
 cg2d: Sum(rhs),rhsMax =  -9.12528008711888E-08  9.49747978836020E+00
 cg2d: Sum(rhs),rhsMax =  -9.12602686753416E-08  9.49670496341604E+00
 cg2d: Sum(rhs),rhsMax =  -9.12679780640246E-08  9.49595558374171E+00
 cg2d: Sum(rhs),rhsMax =  -9.12747850634332E-08  9.49523821505845E+00
 cg2d: Sum(rhs),rhsMax =  -9.12811941589098E-08  9.49455836839740E+00
 cg2d: Sum(rhs),rhsMax =  -9.12878306280618E-08  9.49392042323925E+00
 cg2d: Sum(rhs),rhsMax =  -9.12937139219139E-08  9.49332754785973E+00
 cg2d: Sum(rhs),rhsMax =  -9.12992632606802E-08  9.49278165465699E+00
 cg2d: Sum(rhs),rhsMax =  -9.13035833605136E-08  9.49228339433203E+00
 cg2d: Sum(rhs),rhsMax =  -9.13086424247922E-08  9.49183218209292E+00
 cg2d: Sum(rhs),rhsMax =  -9.13127422563775E-08  9.49142625728328E+00
 cg2d: Sum(rhs),rhsMax =  -9.13163518134752E-08  9.49106276286301E+00
 cg2d: Sum(rhs),rhsMax =  -9.13194782015125E-08  9.49073783789306E+00
 cg2d: Sum(rhs),rhsMax =  -9.13225406407037E-08  9.49044672400271E+00
 cg2d: Sum(rhs),rhsMax =  -9.13253046519458E-08  9.49018390323782E+00
 EXTERNAL_FIELDS_LOAD, it=   3600330 : Reading new data, i0,i1=    6    7 (prev=    5    6 )
 DIC_FIELDS_LOAD, it=   3600330 : Reading new data, i0,i1=    6    7 (prev=    5    6 )
 cg2d: Sum(rhs),rhsMax =  -9.13276210212643E-08  9.48994325700856E+00
 cg2d: Sum(rhs),rhsMax =  -9.13303352945150E-08  9.48970801758053E+00
 cg2d: Sum(rhs),rhsMax =  -9.13328221940901E-08  9.48946471682098E+00
 cg2d: Sum(rhs),rhsMax =  -9.13353943587936E-08  9.48919980375378E+00
 cg2d: Sum(rhs),rhsMax =  -9.13383644274290E-08  9.48889996251626E+00
 cg2d: Sum(rhs),rhsMax =  -9.13418460868343E-08  9.48855235316500E+00
 cg2d: Sum(rhs),rhsMax =  -9.13461093432488E-08  9.48814487205053E+00
 cg2d: Sum(rhs),rhsMax =  -9.13508344524416E-08  9.48766639266868E+00
 cg2d: Sum(rhs),rhsMax =  -9.13563624749258E-08  9.48710698236420E+00
 cg2d: Sum(rhs),rhsMax =  -9.13624518261713E-08  9.48645808347463E+00
 cg2d: Sum(rhs),rhsMax =  -9.13698130489138E-08  9.48571268422533E+00
 cg2d: Sum(rhs),rhsMax =  -9.13783111400335E-08  9.48486545850383E+00
 cg2d: Sum(rhs),rhsMax =  -9.13876760932908E-08  9.48391285858374E+00
 cg2d: Sum(rhs),rhsMax =  -9.13977800109933E-08  9.48285315351105E+00
 cg2d: Sum(rhs),rhsMax =  -9.14093334358768E-08  9.48168641391458E+00
 cg2d: Sum(rhs),rhsMax =  -9.14215760872139E-08  9.48041445516485E+00
 cg2d: Sum(rhs),rhsMax =  -9.14348703418000E-08  9.47904073781749E+00
 cg2d: Sum(rhs),rhsMax =  -9.14490314585237E-08  9.47757022510765E+00
 cg2d: Sum(rhs),rhsMax =  -9.14641802296501E-08  9.47600920384239E+00
 cg2d: Sum(rhs),rhsMax =  -9.14802384954783E-08  9.47436507523804E+00
 cg2d: Sum(rhs),rhsMax =  -9.14970428311790E-08  9.47264612546539E+00
 cg2d: Sum(rhs),rhsMax =  -9.15143658630768E-08  9.47086128598380E+00
 cg2d: Sum(rhs),rhsMax =  -9.15317244221114E-08  9.46901988541289E+00
 cg2d: Sum(rhs),rhsMax =  -9.15503548526431E-08  9.46713139755286E+00
 cg2d: Sum(rhs),rhsMax =  -9.15688005420634E-08  9.46520519129246E+00
 cg2d: Sum(rhs),rhsMax =  -9.15879354579374E-08  9.46325027783096E+00
 cg2d: Sum(rhs),rhsMax =  -9.16070561629567E-08  9.46127510172983E+00
 cg2d: Sum(rhs),rhsMax =  -9.16269016215665E-08  9.45928736176468E+00
 cg2d: Sum(rhs),rhsMax =  -9.16458375854745E-08  9.45729384446051E+00
 cg2d: Sum(rhs),rhsMax =  -9.16652354021608E-08  9.45530032221759E+00
 cg2d: Sum(rhs),rhsMax =  -9.16847469056847E-08  9.45331147339530E+00
 cg2d: Sum(rhs),rhsMax =  -9.17041660386531E-08  9.45133082537812E+00
 cg2d: Sum(rhs),rhsMax =  -9.17234714847837E-08  9.44936073119909E+00
 cg2d: Sum(rhs),rhsMax =  -9.17423008672813E-08  9.44740238220463E+00
 cg2d: Sum(rhs),rhsMax =  -9.17614002560185E-08  9.44545585645758E+00
 cg2d: Sum(rhs),rhsMax =  -9.17801870059520E-08  9.44352020252140E+00
 cg2d: Sum(rhs),rhsMax =  -9.17989737558855E-08  9.44159355733174E+00
 cg2d: Sum(rhs),rhsMax =  -9.18179097197935E-08  9.43967327626014E+00
 cg2d: Sum(rhs),rhsMax =  -9.18367177860091E-08  9.43775607395104E+00
 cg2d: Sum(rhs),rhsMax =  -9.18552629514124E-08  9.43583817490269E+00
 cg2d: Sum(rhs),rhsMax =  -9.18742912858761E-08  9.43391546318717E+00
 cg2d: Sum(rhs),rhsMax =  -9.18933977800407E-08  9.43198362529795E+00
 cg2d: Sum(rhs),rhsMax =  -9.19123053222393E-08  9.43003828806143E+00
 cg2d: Sum(rhs),rhsMax =  -9.19319091963189E-08  9.42807514245689E+00
 cg2d: Sum(rhs),rhsMax =  -9.19516196518089E-08  9.42609005034801E+00
 cg2d: Sum(rhs),rhsMax =  -9.19711453661876E-08  9.42407914155286E+00
 cg2d: Sum(rhs),rhsMax =  -9.19916374186869E-08  9.42203890101561E+00
 cg2d: Sum(rhs),rhsMax =  -9.20122005254598E-08  9.41996625280574E+00
 cg2d: Sum(rhs),rhsMax =  -9.20328773190704E-08  9.41785862954787E+00
 cg2d: Sum(rhs),rhsMax =  -9.20541722848611E-08  9.41571402403211E+00
 cg2d: Sum(rhs),rhsMax =  -9.20761920042423E-08  9.41353104362712E+00
 cg2d: Sum(rhs),rhsMax =  -9.20975224971698E-08  9.41130897700722E+00
 cg2d: Sum(rhs),rhsMax =  -9.21202243375774E-08  9.40904782014454E+00
 cg2d: Sum(rhs),rhsMax =  -9.21427556477283E-08  9.40674826682519E+00
 cg2d: Sum(rhs),rhsMax =  -9.21658624974953E-08  9.40441167656376E+00
 cg2d: Sum(rhs),rhsMax =  -9.21897651551262E-08  9.40204003109270E+00
 cg2d: Sum(rhs),rhsMax =  -9.22136393910478E-08  9.39963588692061E+00
 cg2d: Sum(rhs),rhsMax =  -9.22377765277815E-08  9.39720232327049E+00
 cg2d: Sum(rhs),rhsMax =  -9.22617147125493E-08  9.39474287623570E+00
 cg2d: Sum(rhs),rhsMax =  -9.22866476571471E-08  9.39226147078604E+00
 EXTERNAL_FIELDS_LOAD, it=   3600390 : Reading new data, i0,i1=    7    8 (prev=    6    7 )
 DIC_FIELDS_LOAD, it=   3600390 : Reading new data, i0,i1=    7    8 (prev=    6    7 )
 cg2d: Sum(rhs),rhsMax =  -9.23120353490958E-08  9.38976233427929E+00
 cg2d: Sum(rhs),rhsMax =  -9.23369185557021E-08  9.38724381347799E+00
 cg2d: Sum(rhs),rhsMax =  -9.23620930848301E-08  9.38470550458213E+00
 cg2d: Sum(rhs),rhsMax =  -9.23878431535741E-08  9.38214640732935E+00
 cg2d: Sum(rhs),rhsMax =  -9.24133303215058E-08  9.37956498127073E+00
 cg2d: Sum(rhs),rhsMax =  -9.24395564538827E-08  9.37695924403383E+00
 cg2d: Sum(rhs),rhsMax =  -9.24659673273709E-08  9.37432689628576E+00
 cg2d: Sum(rhs),rhsMax =  -9.24926268908166E-08  9.37166545130188E+00
 cg2d: Sum(rhs),rhsMax =  -9.25199330481519E-08  9.36897236493602E+00
 cg2d: Sum(rhs),rhsMax =  -9.25472107837777E-08  9.36624514198210E+00
 cg2d: Sum(rhs),rhsMax =  -9.25749148450450E-08  9.36348144222541E+00
 cg2d: Sum(rhs),rhsMax =  -9.26027894365689E-08  9.36067916467522E+00
 cg2d: Sum(rhs),rhsMax =  -9.26316801042049E-08  9.35783651518778E+00
 cg2d: Sum(rhs),rhsMax =  -9.26604357687211E-08  9.35495205473915E+00
 cg2d: Sum(rhs),rhsMax =  -9.26899872411013E-08  9.35202472862356E+00
 cg2d: Sum(rhs),rhsMax =  -9.27198087197212E-08  9.34905386050751E+00
 cg2d: Sum(rhs),rhsMax =  -9.27502270542391E-08  9.34603912446753E+00
 cg2d: Sum(rhs),rhsMax =  -9.27809580275607E-08  9.34298052032945E+00
 cg2d: Sum(rhs),rhsMax =  -9.28122148025068E-08  9.33987837125357E+00
 cg2d: Sum(rhs),rhsMax =  -9.28438836922396E-08  9.33673332003228E+00
 cg2d: Sum(rhs),rhsMax =  -9.28756591633828E-08  9.33354631509102E+00
 cg2d: Sum(rhs),rhsMax =  -9.29085999246126E-08  9.33031856217985E+00
 cg2d: Sum(rhs),rhsMax =  -9.29414056827227E-08  9.32705144157814E+00
 cg2d: Sum(rhs),rhsMax =  -9.29742824951063E-08  9.32374640924821E+00
 cg2d: Sum(rhs),rhsMax =  -9.30079835370634E-08  9.32040491207867E+00
 cg2d: Sum(rhs),rhsMax =  -9.30417982658582E-08  9.31702830536998E+00
 cg2d: Sum(rhs),rhsMax =  -9.30764798567907E-08  9.31361778906816E+00
 cg2d: Sum(rhs),rhsMax =  -9.31104011669959E-08  9.31017435680010E+00
 cg2d: Sum(rhs),rhsMax =  -9.31454593455783E-08  9.30669874783390E+00
 cg2d: Sum(rhs),rhsMax =  -9.31809367443748E-08  9.30319140183628E+00
 cg2d: Sum(rhs),rhsMax =  -9.32159238686836E-08  9.29965242032067E+00
 cg2d: Sum(rhs),rhsMax =  -9.32518702256857E-08  9.29608155387300E+00
 cg2d: Sum(rhs),rhsMax =  -9.32883352788849E-08  9.29247816276956E+00
 cg2d: Sum(rhs),rhsMax =  -9.33245232204172E-08  9.28884120452690E+00
 cg2d: Sum(rhs),rhsMax =  -9.33613577558390E-08  9.28516924951164E+00
 cg2d: Sum(rhs),rhsMax =  -9.33982562401070E-08  9.28146051649491E+00
 cg2d: Sum(rhs),rhsMax =  -9.34364479121541E-08  9.27771291851975E+00
 cg2d: Sum(rhs),rhsMax =  -9.34740143065937E-08  9.27392411497484E+00
 cg2d: Sum(rhs),rhsMax =  -9.35126251988549E-08  9.27009157616147E+00
 cg2d: Sum(rhs),rhsMax =  -9.35518329470142E-08  9.26621266064052E+00
 cg2d: Sum(rhs),rhsMax =  -9.35912964905583E-08  9.26228469753356E+00
 cg2d: Sum(rhs),rhsMax =  -9.36311082000429E-08  9.25830502540661E+00
 cg2d: Sum(rhs),rhsMax =  -9.36718080879473E-08  9.25427104022615E+00
 cg2d: Sum(rhs),rhsMax =  -9.37130835154676E-08  9.25018025806528E+00
 cg2d: Sum(rhs),rhsMax =  -9.37547639523473E-08  9.24603037476154E+00
 cg2d: Sum(rhs),rhsMax =  -9.37974888870485E-08  9.24181932462259E+00
 cg2d: Sum(rhs),rhsMax =  -9.38402919814507E-08  9.23754533703139E+00
 cg2d: Sum(rhs),rhsMax =  -9.38843172093584E-08  9.23320698439808E+00
 cg2d: Sum(rhs),rhsMax =  -9.39290814017113E-08  9.22880321317793E+00
 cg2d: Sum(rhs),rhsMax =  -9.39739734917566E-08  9.22433335164241E+00
 cg2d: Sum(rhs),rhsMax =  -9.40200521881707E-08  9.21979710173837E+00
 cg2d: Sum(rhs),rhsMax =  -9.40667135296280E-08  9.21519452384442E+00
 cg2d: Sum(rhs),rhsMax =  -9.41140712029664E-08  9.21052602027441E+00
 cg2d: Sum(rhs),rhsMax =  -9.41621181027585E-08  9.20579231856880E+00
 cg2d: Sum(rhs),rhsMax =  -9.42108115964402E-08  9.20099445172383E+00
 cg2d: Sum(rhs),rhsMax =  -9.42603506359774E-08  9.19613373409314E+00
 cg2d: Sum(rhs),rhsMax =  -9.43106570616692E-08  9.19121172891709E+00
 cg2d: Sum(rhs),rhsMax =  -9.43619582471911E-08  9.18623021276131E+00
 cg2d: Sum(rhs),rhsMax =  -9.44129254776271E-08  9.18119115032627E+00
 cg2d: Sum(rhs),rhsMax =  -9.44648874678933E-08  9.17609666859133E+00
 EXTERNAL_FIELDS_LOAD, it=   3600450 : Reading new data, i0,i1=    8    9 (prev=    7    8 )
 DIC_FIELDS_LOAD, it=   3600450 : Reading new data, i0,i1=    8    9 (prev=    7    8 )
 cg2d: Sum(rhs),rhsMax =  -9.45180929079470E-08  9.17094900539886E+00
 cg2d: Sum(rhs),rhsMax =  -9.45713196642828E-08  9.16576037761048E+00
 cg2d: Sum(rhs),rhsMax =  -9.46249869571147E-08  9.16053907873528E+00
 cg2d: Sum(rhs),rhsMax =  -9.46787679367844E-08  9.15529303788953E+00
 cg2d: Sum(rhs),rhsMax =  -9.47327123412833E-08  9.15002961005962E+00
 cg2d: Sum(rhs),rhsMax =  -9.47873814993727E-08  9.14475542293395E+00
 cg2d: Sum(rhs),rhsMax =  -9.48415888046839E-08  9.13947626776025E+00
 cg2d: Sum(rhs),rhsMax =  -9.48963148061921E-08  9.13419703804716E+00
 cg2d: Sum(rhs),rhsMax =  -9.49505718494947E-08  9.12892171232682E+00
 cg2d: Sum(rhs),rhsMax =  -9.50055820680973E-08  9.12365335338700E+00
 cg2d: Sum(rhs),rhsMax =  -9.50602441207593E-08  9.11839411243203E+00
 cg2d: Sum(rhs),rhsMax =  -9.51149274897034E-08  9.11314523538299E+00
 cg2d: Sum(rhs),rhsMax =  -9.51689713701853E-08  9.10790707134369E+00
 cg2d: Sum(rhs),rhsMax =  -9.52241663298992E-08  9.10267908920085E+00
 cg2d: Sum(rhs),rhsMax =  -9.52785583763216E-08  9.09745990818067E+00
 cg2d: Sum(rhs),rhsMax =  -9.53332346398383E-08  9.09224734512777E+00
 cg2d: Sum(rhs),rhsMax =  -9.53879322196372E-08  9.08703847736888E+00
 cg2d: Sum(rhs),rhsMax =  -9.54423811094784E-08  9.08182972075513E+00
 cg2d: Sum(rhs),rhsMax =  -9.54974623823546E-08  9.07661692347198E+00
 cg2d: Sum(rhs),rhsMax =  -9.55527141854873E-08  9.07139547821490E+00
 cg2d: Sum(rhs),rhsMax =  -9.56078878289190E-08  9.06616045270155E+00
 cg2d: Sum(rhs),rhsMax =  -9.56632462134621E-08  9.06090673305150E+00
 cg2d: Sum(rhs),rhsMax =  -9.57190593453561E-08  9.05562917574046E+00
 cg2d: Sum(rhs),rhsMax =  -9.57753982788745E-08  9.05032276301453E+00
 cg2d: Sum(rhs),rhsMax =  -9.58323127520089E-08  9.04498274779792E+00
 cg2d: Sum(rhs),rhsMax =  -9.58890566948867E-08  9.03960479010611E+00
 cg2d: Sum(rhs),rhsMax =  -9.59469090844323E-08  9.03418508103277E+00
 cg2d: Sum(rhs),rhsMax =  -9.60046975251316E-08  9.02872044807494E+00
 cg2d: Sum(rhs),rhsMax =  -9.60634949365158E-08  9.02320843719522E+00
 cg2d: Sum(rhs),rhsMax =  -9.61234505325592E-08  9.01764736350553E+00
 cg2d: Sum(rhs),rhsMax =  -9.61829158541150E-08  9.01203632711249E+00
 cg2d: Sum(rhs),rhsMax =  -9.62436175200310E-08  9.00637519234014E+00
 cg2d: Sum(rhs),rhsMax =  -9.63047241953063E-08  9.00066454100738E+00
 cg2d: Sum(rhs),rhsMax =  -9.63663566722062E-08  8.99490560644289E+00
 cg2d: Sum(rhs),rhsMax =  -9.64286215321408E-08  8.98910019830229E+00
 cg2d: Sum(rhs),rhsMax =  -9.64914832479735E-08  8.98325060608421E+00
 cg2d: Sum(rhs),rhsMax =  -9.65549631359863E-08  8.97735949860674E+00
 cg2d: Sum(rhs),rhsMax =  -9.66191180395981E-08  8.97142982445055E+00
 cg2d: Sum(rhs),rhsMax =  -9.66832942594920E-08  8.96546471599943E+00
 cg2d: Sum(rhs),rhsMax =  -9.67482520763951E-08  8.95946740124540E+00
 cg2d: Sum(rhs),rhsMax =  -9.68132098932983E-08  8.95344112713886E+00
 cg2d: Sum(rhs),rhsMax =  -9.68790274669118E-08  8.94738909112794E+00
 cg2d: Sum(rhs),rhsMax =  -9.69447810916790E-08  8.94131438207753E+00
 cg2d: Sum(rhs),rhsMax =  -9.70111884157632E-08  8.93521991327319E+00
 cg2d: Sum(rhs),rhsMax =  -9.70773115227530E-08  8.92910833888471E+00
 cg2d: Sum(rhs),rhsMax =  -9.71445075492738E-08  8.92298199747039E+00
 cg2d: Sum(rhs),rhsMax =  -9.72113554098541E-08  8.91684290726808E+00
 cg2d: Sum(rhs),rhsMax =  -9.72787574937684E-08  8.91069264633776E+00
 cg2d: Sum(rhs),rhsMax =  -9.73459535202892E-08  8.90453228797114E+00
 cg2d: Sum(rhs),rhsMax =  -9.74135971887335E-08  8.89836249714105E+00
 cg2d: Sum(rhs),rhsMax =  -9.74817027099562E-08  8.89218368115518E+00
 cg2d: Sum(rhs),rhsMax =  -9.75496519117769E-08  8.88599608996445E+00
 cg2d: Sum(rhs),rhsMax =  -9.76179350686834E-08  8.87979980032782E+00
 cg2d: Sum(rhs),rhsMax =  -9.76860476953334E-08  8.87359466021019E+00
 cg2d: Sum(rhs),rhsMax =  -9.77549490244201E-08  8.86737992136571E+00
 cg2d: Sum(rhs),rhsMax =  -9.78237792992331E-08  8.86115449881272E+00
 cg2d: Sum(rhs),rhsMax =  -9.78925882577641E-08  8.85491714939279E+00
 cg2d: Sum(rhs),rhsMax =  -9.79620651264668E-08  8.84866650814923E+00
 cg2d: Sum(rhs),rhsMax =  -9.80318830556826E-08  8.84239908862083E+00
 cg2d: Sum(rhs),rhsMax =  -9.81016583523342E-08  8.83611205511795E+00
 EXTERNAL_FIELDS_LOAD, it=   3600510 : Reading new data, i0,i1=    9   10 (prev=    8    9 )
 DIC_FIELDS_LOAD, it=   3600510 : Reading new data, i0,i1=    9   10 (prev=    8    9 )
 cg2d: Sum(rhs),rhsMax =  -9.81721868242857E-08  8.82980306034887E+00
 cg2d: Sum(rhs),rhsMax =  -9.82427721396562E-08  8.82347164349139E+00
 cg2d: Sum(rhs),rhsMax =  -9.83135990395567E-08  8.81711735596894E+00
 cg2d: Sum(rhs),rhsMax =  -9.83851720093298E-08  8.81074020360017E+00
 cg2d: Sum(rhs),rhsMax =  -9.84564962891454E-08  8.80434063629974E+00
 cg2d: Sum(rhs),rhsMax =  -9.85286376931072E-08  8.79791959804717E+00
 cg2d: Sum(rhs),rhsMax =  -9.86011414738641E-08  8.79147850051498E+00
 cg2d: Sum(rhs),rhsMax =  -9.86734960406466E-08  8.78501923806664E+00
 cg2d: Sum(rhs),rhsMax =  -9.87464900958912E-08  8.77854412431977E+00
 cg2d: Sum(rhs),rhsMax =  -9.88197470519481E-08  8.77205585109022E+00
 cg2d: Sum(rhs),rhsMax =  -9.88934729662105E-08  8.76555740298602E+00
 cg2d: Sum(rhs),rhsMax =  -9.89669146633787E-08  8.75905198910442E+00
 cg2d: Sum(rhs),rhsMax =  -9.90407258427695E-08  8.75254295465281E+00
 cg2d: Sum(rhs),rhsMax =  -9.91145014950234E-08  8.74603368964057E+00
 cg2d: Sum(rhs),rhsMax =  -9.91886466295000E-08  8.73952755244439E+00
 cg2d: Sum(rhs),rhsMax =  -9.92623157003436E-08  8.73302782624689E+00
 cg2d: Sum(rhs),rhsMax =  -9.93363400425551E-08  8.72653766294564E+00
 cg2d: Sum(rhs),rhsMax =  -9.94104141227581E-08  8.72006002219781E+00
 cg2d: Sum(rhs),rhsMax =  -9.94844668866790E-08  8.71359759621992E+00
 cg2d: Sum(rhs),rhsMax =  -9.95583775420528E-08  8.70715278372291E+00
 cg2d: Sum(rhs),rhsMax =  -9.96322597757171E-08  8.70072771032166E+00
 cg2d: Sum(rhs),rhsMax =  -9.97059714791249E-08  8.69432422374462E+00
 cg2d: Sum(rhs),rhsMax =  -9.97792923840279E-08  8.68794392220557E+00
 cg2d: Sum(rhs),rhsMax =  -9.98527127649140E-08  8.68159287495532E+00
 cg2d: Sum(rhs),rhsMax =  -9.99256144496030E-08  8.67527594836007E+00
 cg2d: Sum(rhs),rhsMax =  -9.99983740257449E-08  8.66899648662334E+00
 cg2d: Sum(rhs),rhsMax =  -1.00070764119664E-07  8.66275674813775E+00
 cg2d: Sum(rhs),rhsMax =  -1.00142791836788E-07  8.65655808426570E+00
 cg2d: Sum(rhs),rhsMax =  -1.00214123222031E-07  8.65040095427649E+00
 cg2d: Sum(rhs),rhsMax =  -1.00285419080137E-07  8.64428511771589E+00
 cg2d: Sum(rhs),rhsMax =  -1.00356203347474E-07  8.63820779072895E+00
 cg2d: Sum(rhs),rhsMax =  -1.00426881033400E-07  8.63216610266613E+00
 cg2d: Sum(rhs),rhsMax =  -1.00497182131676E-07  8.62615664857018E+00
 cg2d: Sum(rhs),rhsMax =  -1.00566929006618E-07  8.62017549344574E+00
 cg2d: Sum(rhs),rhsMax =  -1.00636839306389E-07  8.61421824973427E+00
 cg2d: Sum(rhs),rhsMax =  -1.00706515127058E-07  8.60828014305759E+00
 cg2d: Sum(rhs),rhsMax =  -1.00776318845419E-07  8.60235619466164E+00
 cg2d: Sum(rhs),rhsMax =  -1.00845916506387E-07  8.59644141396147E+00
 cg2d: Sum(rhs),rhsMax =  -1.00915485745645E-07  8.59053104903554E+00
 cg2d: Sum(rhs),rhsMax =  -1.00985261042297E-07  8.58462072248315E+00
 cg2d: Sum(rhs),rhsMax =  -1.01055491086299E-07  8.57870663714626E+00
 cg2d: Sum(rhs),rhsMax =  -1.01125422702353E-07  8.57278566865890E+00
 cg2d: Sum(rhs),rhsMax =  -1.01195716695202E-07  8.56685532083521E+00
 cg2d: Sum(rhs),rhsMax =  -1.01266216745444E-07  8.56091374139585E+00
 cg2d: Sum(rhs),rhsMax =  -1.01337192859319E-07  8.55495975914983E+00
 cg2d: Sum(rhs),rhsMax =  -1.01408346608878E-07  8.54899275863313E+00
 cg2d: Sum(rhs),rhsMax =  -1.01479535885574E-07  8.54301265247851E+00
 cg2d: Sum(rhs),rhsMax =  -1.01551435705005E-07  8.53701978569626E+00
 cg2d: Sum(rhs),rhsMax =  -1.01622724457684E-07  8.53101490472480E+00
 cg2d: Sum(rhs),rhsMax =  -1.01695292187287E-07  8.52499919193590E+00
 cg2d: Sum(rhs),rhsMax =  -1.01767554383514E-07  8.51897431341724E+00
 cg2d: Sum(rhs),rhsMax =  -1.01840242905382E-07  8.51294235247767E+00
 cg2d: Sum(rhs),rhsMax =  -1.01912846162122E-07  8.50690569200869E+00
 cg2d: Sum(rhs),rhsMax =  -1.01985413891725E-07  8.50087005576702E+00
 cg2d: Sum(rhs),rhsMax =  -1.02058450579534E-07  8.49484015017416E+00
 cg2d: Sum(rhs),rhsMax =  -1.02131188839394E-07  8.48882063673028E+00
 cg2d: Sum(rhs),rhsMax =  -1.02203856044980E-07  8.48281607441673E+00
 cg2d: Sum(rhs),rhsMax =  -1.02276672464541E-07  8.47683086082370E+00
 cg2d: Sum(rhs),rhsMax =  -1.02349595465512E-07  8.47086915096995E+00
 cg2d: Sum(rhs),rhsMax =  -1.02421360281824E-07  8.46493476809303E+00
 EXTERNAL_FIELDS_LOAD, it=   3600570 : Reading new data, i0,i1=   10   11 (prev=    9   10 )
 DIC_FIELDS_LOAD, it=   3600570 : Reading new data, i0,i1=   10   11 (prev=    9   10 )
 cg2d: Sum(rhs),rhsMax =  -1.02493515896640E-07  8.45903109783263E+00
 cg2d: Sum(rhs),rhsMax =  -1.02564975179575E-07  8.45319648993583E+00
 cg2d: Sum(rhs),rhsMax =  -1.02634501786270E-07  8.44745634270964E+00
 cg2d: Sum(rhs),rhsMax =  -1.02703893389844E-07  8.44183524325516E+00
 cg2d: Sum(rhs),rhsMax =  -1.02770819410125E-07  8.43635626330932E+00
 cg2d: Sum(rhs),rhsMax =  -1.02836231974379E-07  8.43104036727980E+00
 cg2d: Sum(rhs),rhsMax =  -1.02899214482477E-07  8.42590597581903E+00
 cg2d: Sum(rhs),rhsMax =  -1.02960150627496E-07  8.42096861540595E+00
 cg2d: Sum(rhs),rhsMax =  -1.03018727770632E-07  8.41624063283881E+00
 cg2d: Sum(rhs),rhsMax =  -1.03074462742825E-07  8.41173099284368E+00
 cg2d: Sum(rhs),rhsMax =  -1.03127582917750E-07  8.40744522364360E+00
 cg2d: Sum(rhs),rhsMax =  -1.03177704602331E-07  8.40338548638234E+00
 cg2d: Sum(rhs),rhsMax =  -1.03225289649345E-07  8.39955071057647E+00
 cg2d: Sum(rhs),rhsMax =  -1.03270444640202E-07  8.39593686353065E+00
 cg2d: Sum(rhs),rhsMax =  -1.03312800092681E-07  8.39253726007720E+00
 cg2d: Sum(rhs),rhsMax =  -1.03352554958747E-07  8.38934286490718E+00
 cg2d: Sum(rhs),rhsMax =  -1.03389886874083E-07  8.38634267692018E+00
 cg2d: Sum(rhs),rhsMax =  -1.03425186637196E-07  8.38352418466840E+00
 cg2d: Sum(rhs),rhsMax =  -1.03458575040349E-07  8.38087384792736E+00
 cg2d: Sum(rhs),rhsMax =  -1.03489654179612E-07  8.37837764295235E+00
 cg2d: Sum(rhs),rhsMax =  -1.03519347760539E-07  8.37602165023152E+00
 cg2d: Sum(rhs),rhsMax =  -1.03547364460610E-07  8.37379265495454E+00
 cg2d: Sum(rhs),rhsMax =  -1.03573896126363E-07  8.37167859305842E+00
 cg2d: Sum(rhs),rhsMax =  -1.03599155920620E-07  8.36966841617237E+00
 cg2d: Sum(rhs),rhsMax =  -1.03623357006200E-07  8.36775262363169E+00
 cg2d: Sum(rhs),rhsMax =  -1.03646584648232E-07  8.36592322530019E+00
 cg2d: Sum(rhs),rhsMax =  -1.03668426731929E-07  8.36417370361670E+00
 cg2d: Sum(rhs),rhsMax =  -1.03689806962848E-07  8.36249893566327E+00
 cg2d: Sum(rhs),rhsMax =  -1.03710164012227E-07  8.36089512198643E+00
 cg2d: Sum(rhs),rhsMax =  -1.03729064448999E-07  8.35935972193128E+00
 cg2d: Sum(rhs),rhsMax =  -1.03747986202052E-07  8.35789132052859E+00
 cg2d: Sum(rhs),rhsMax =  -1.03765373182796E-07  8.35648953984663E+00
 cg2d: Sum(rhs),rhsMax =  -1.03782369365035E-07  8.35515503666620E+00
 cg2d: Sum(rhs),rhsMax =  -1.03798733164240E-07  8.35388959337713E+00
 cg2d: Sum(rhs),rhsMax =  -1.03813491136862E-07  8.35269612989214E+00
 cg2d: Sum(rhs),rhsMax =  -1.03827638042731E-07  8.35157865319166E+00
 cg2d: Sum(rhs),rhsMax =  -1.03841280463257E-07  8.35054220321588E+00
 cg2d: Sum(rhs),rhsMax =  -1.03853331268056E-07  8.34959282244478E+00
 cg2d: Sum(rhs),rhsMax =  -1.03864024936229E-07  8.34873757212784E+00
 cg2d: Sum(rhs),rhsMax =  -1.03873794898846E-07  8.34798443944571E+00
 cg2d: Sum(rhs),rhsMax =  -1.03881951929452E-07  8.34734205444848E+00
 cg2d: Sum(rhs),rhsMax =  -1.03888730507151E-07  8.34681927427749E+00
 cg2d: Sum(rhs),rhsMax =  -1.03893782466002E-07  8.34642479662444E+00
 cg2d: Sum(rhs),rhsMax =  -1.03896695691219E-07  8.34616690162161E+00
 cg2d: Sum(rhs),rhsMax =  -1.03898251779810E-07  8.34605328416144E+00
 cg2d: Sum(rhs),rhsMax =  -1.03897747294468E-07  8.34609086201575E+00
 cg2d: Sum(rhs),rhsMax =  -1.03895416714295E-07  8.34628560159372E+00
 cg2d: Sum(rhs),rhsMax =  -1.03891132141598E-07  8.34664238294981E+00
 cg2d: Sum(rhs),rhsMax =  -1.03884730151549E-07  8.34716488141953E+00
 cg2d: Sum(rhs),rhsMax =  -1.03876232060429E-07  8.34785544920597E+00
 cg2d: Sum(rhs),rhsMax =  -1.03865339440290E-07  8.34871504733891E+00
 cg2d: Sum(rhs),rhsMax =  -1.03852393351644E-07  8.34974320296400E+00
 cg2d: Sum(rhs),rhsMax =  -1.03837578535604E-07  8.35093803633076E+00
 cg2d: Sum(rhs),rhsMax =  -1.03820866570459E-07  8.35229628921908E+00
 cg2d: Sum(rhs),rhsMax =  -1.03801575335183E-07  8.35381348895399E+00
 cg2d: Sum(rhs),rhsMax =  -1.03780770643880E-07  8.35548405560547E+00
 cg2d: Sum(rhs),rhsMax =  -1.03758168279455E-07  8.35730145035772E+00
 cg2d: Sum(rhs),rhsMax =  -1.03734052459004E-07  8.35925834161856E+00
 cg2d: Sum(rhs),rhsMax =  -1.03707641585515E-07  8.36134677020027E+00
 cg2d: Sum(rhs),rhsMax =  -1.03680264373907E-07  8.36355833544679E+00
 EXTERNAL_FIELDS_LOAD, it=   3600630 : Reading new data, i0,i1=   11   12 (prev=   10   11 )
 DIC_FIELDS_LOAD, it=   3600630 : Reading new data, i0,i1=   11   12 (prev=   10   11 )
 cg2d: Sum(rhs),rhsMax =  -1.03651167648877E-07  8.36588437297216E+00
 cg2d: Sum(rhs),rhsMax =  -1.03620983793462E-07  8.36829873825493E+00
 cg2d: Sum(rhs),rhsMax =  -1.03590167555012E-07  8.37078098256463E+00
 cg2d: Sum(rhs),rhsMax =  -1.03558832620365E-07  8.37331076990736E+00
 cg2d: Sum(rhs),rhsMax =  -1.03526986094948E-07  8.37586828475342E+00
 cg2d: Sum(rhs),rhsMax =  -1.03494969039275E-07  8.37843651347270E+00
 cg2d: Sum(rhs),rhsMax =  -1.03462959089029E-07  8.38100058596186E+00
 cg2d: Sum(rhs),rhsMax =  -1.03431759157502E-07  8.38354800119352E+00
 cg2d: Sum(rhs),rhsMax =  -1.03400431328282E-07  8.38606907281455E+00
 cg2d: Sum(rhs),rhsMax =  -1.03369536930131E-07  8.38855705740912E+00
 cg2d: Sum(rhs),rhsMax =  -1.03339182544460E-07  8.39100818777902E+00
 cg2d: Sum(rhs),rhsMax =  -1.03309091059600E-07  8.39342162927294E+00
 cg2d: Sum(rhs),rhsMax =  -1.03279326424399E-07  8.39579937673915E+00
 cg2d: Sum(rhs),rhsMax =  -1.03250158645096E-07  8.39814606298476E+00
 cg2d: Sum(rhs),rhsMax =  -1.03221587721691E-07  8.40046867037939E+00
 cg2d: Sum(rhs),rhsMax =  -1.03192640210636E-07  8.40277617859981E+00
 cg2d: Sum(rhs),rhsMax =  -1.03164317977189E-07  8.40507915533000E+00
 cg2d: Sum(rhs),rhsMax =  -1.03135583628955E-07  8.40738929078001E+00
 cg2d: Sum(rhs),rhsMax =  -1.03106465587643E-07  8.40971893982490E+00
 cg2d: Sum(rhs),rhsMax =  -1.03077603341717E-07  8.41208069021930E+00
 cg2d: Sum(rhs),rhsMax =  -1.03047760546815E-07  8.41448664736628E+00
 cg2d: Sum(rhs),rhsMax =  -1.03017328001442E-07  8.41694808963461E+00
 cg2d: Sum(rhs),rhsMax =  -1.02985850958248E-07  8.41947641344255E+00
 cg2d: Sum(rhs),rhsMax =  -1.02953762848301E-07  8.42209465677943E+00
 cg2d: Sum(rhs),rhsMax =  -1.02920779454507E-07  8.42481840011152E+00
 cg2d: Sum(rhs),rhsMax =  -1.02885756803062E-07  8.42766143831664E+00
 cg2d: Sum(rhs),rhsMax =  -1.02849760708068E-07  8.43063562227923E+00
 cg2d: Sum(rhs),rhsMax =  -1.02811505087175E-07  8.43375048923612E+00
 cg2d: Sum(rhs),rhsMax =  -1.02771743115682E-07  8.43701312183894E+00
 cg2d: Sum(rhs),rhsMax =  -1.02730268736195E-07  8.44042805498092E+00
 cg2d: Sum(rhs),rhsMax =  -1.02686364300553E-07  8.44399728026233E+00
 cg2d: Sum(rhs),rhsMax =  -1.02641237731405E-07  8.44772028674299E+00
 cg2d: Sum(rhs),rhsMax =  -1.02594057693750E-07  8.45159419183708E+00
 cg2d: Sum(rhs),rhsMax =  -1.02545079982974E-07  8.45561389463918E+00
 cg2d: Sum(rhs),rhsMax =  -1.02494418285914E-07  8.45977229544668E+00
 cg2d: Sum(rhs),rhsMax =  -1.02442626825905E-07  8.46406043486096E+00
 cg2d: Sum(rhs),rhsMax =  -1.02389186906748E-07  8.46846786249842E+00
 cg2d: Sum(rhs),rhsMax =  -1.02334411167249E-07  8.47298294092153E+00
 cg2d: Sum(rhs),rhsMax =  -1.02278569613645E-07  8.47759310010859E+00
 cg2d: Sum(rhs),rhsMax =  -1.02221783038203E-07  8.48228511495217E+00
 cg2d: Sum(rhs),rhsMax =  -1.02164435134000E-07  8.48704540520819E+00
 cg2d: Sum(rhs),rhsMax =  -1.02106639587873E-07  8.49186038102640E+00
 cg2d: Sum(rhs),rhsMax =  -1.02048161920720E-07  8.49671683330553E+00
 cg2d: Sum(rhs),rhsMax =  -1.01989222400789E-07  8.50160229731839E+00
 cg2d: Sum(rhs),rhsMax =  -1.01930119456028E-07  8.50650541756349E+00
 cg2d: Sum(rhs),rhsMax =  -1.01871734159431E-07  8.51141606286167E+00
 cg2d: Sum(rhs),rhsMax =  -1.01813114383731E-07  8.51632550458549E+00
 cg2d: Sum(rhs),rhsMax =  -1.01754352499484E-07  8.52122658728227E+00
 cg2d: Sum(rhs),rhsMax =  -1.01695938781177E-07  8.52611387363114E+00
 cg2d: Sum(rhs),rhsMax =  -1.01637908755947E-07  8.53098375482528E+00
 cg2d: Sum(rhs),rhsMax =  -1.01580091893538E-07  8.53583450654913E+00
 cg2d: Sum(rhs),rhsMax =  -1.01522516615660E-07  8.54066629803099E+00
 cg2d: Sum(rhs),rhsMax =  -1.01465325030858E-07  8.54548114840508E+00
 cg2d: Sum(rhs),rhsMax =  -1.01408510033707E-07  8.55028281355603E+00
 cg2d: Sum(rhs),rhsMax =  -1.01351844250530E-07  8.55507663782142E+00
 cg2d: Sum(rhs),rhsMax =  -1.01294901355686E-07  8.55986938569464E+00
 cg2d: Sum(rhs),rhsMax =  -1.01238242677937E-07  8.56466907941720E+00
 cg2d: Sum(rhs),rhsMax =  -1.01181711897880E-07  8.56948481849350E+00
 cg2d: Sum(rhs),rhsMax =  -1.01124427942523E-07  8.57432655386490E+00
 cg2d: Sum(rhs),rhsMax =  -1.01066994773191E-07  8.57920482306538E+00
 EXTERNAL_FIELDS_LOAD, it=   3600690 : Reading new data, i0,i1=   12    1 (prev=   11   12 )
 DIC_FIELDS_LOAD, it=   3600690 : Reading new data, i0,i1=   12    1 (prev=   11   12 )
 cg2d: Sum(rhs),rhsMax =  -1.01009099751082E-07  8.58413045456863E+00
 cg2d: Sum(rhs),rhsMax =  -1.00950970249869E-07  8.58908772075261E+00
 cg2d: Sum(rhs),rhsMax =  -1.00892201260194E-07  8.59407113784658E+00
 cg2d: Sum(rhs),rhsMax =  -1.00833979388426E-07  8.59907533504329E+00
 cg2d: Sum(rhs),rhsMax =  -1.00775366718153E-07  8.60409527812640E+00
 cg2d: Sum(rhs),rhsMax =  -1.00716533779632E-07  8.60912639608676E+00
 cg2d: Sum(rhs),rhsMax =  -1.00657807422522E-07  8.61416467727663E+00
 cg2d: Sum(rhs),rhsMax =  -1.00599194752249E-07  8.61920670304104E+00
 cg2d: Sum(rhs),rhsMax =  -1.00540219705181E-07  8.62424959025954E+00
 cg2d: Sum(rhs),rhsMax =  -1.00481713616318E-07  8.62929084710763E+00
 cg2d: Sum(rhs),rhsMax =  -1.00423278581729E-07  8.63432823431656E+00
 cg2d: Sum(rhs),rhsMax =  -1.00365085131671E-07  8.63935967110789E+00
 cg2d: Sum(rhs),rhsMax =  -1.00306984052168E-07  8.64438326330631E+00
 cg2d: Sum(rhs),rhsMax =  -1.00248698231553E-07  8.64939736363611E+00
 cg2d: Sum(rhs),rhsMax =  -1.00191144269957E-07  8.65440069908248E+00
 cg2d: Sum(rhs),rhsMax =  -1.00133568992078E-07  8.65939260929048E+00
 cg2d: Sum(rhs),rhsMax =  -1.00076100295610E-07  8.66437312037654E+00
 cg2d: Sum(rhs),rhsMax =  -1.00019036608501E-07  8.66934290835576E+00
 cg2d: Sum(rhs),rhsMax =  -9.99617597585711E-08  8.67430225124478E+00
 cg2d: Sum(rhs),rhsMax =  -9.99047102823170E-08  8.67925494682890E+00
 cg2d: Sum(rhs),rhsMax =  -9.98482363456787E-08  8.68420608713978E+00
 cg2d: Sum(rhs),rhsMax =  -9.97913716105359E-08  8.68916081980566E+00
 cg2d: Sum(rhs),rhsMax =  -9.97343434505638E-08  8.69412416784580E+00
 cg2d: Sum(rhs),rhsMax =  -9.96773295014464E-08  8.69910085245627E+00
 cg2d: Sum(rhs),rhsMax =  -9.96202871306195E-08  8.70409517445086E+00
 cg2d: Sum(rhs),rhsMax =  -9.95629250155616E-08  8.70911095741398E+00
 cg2d: Sum(rhs),rhsMax =  -9.95059110664442E-08  8.71415148969223E+00
 cg2d: Sum(rhs),rhsMax =  -9.94480160443345E-08  8.71921930590513E+00
 cg2d: Sum(rhs),rhsMax =  -9.93902702361993E-08  8.72431607432102E+00
 cg2d: Sum(rhs),rhsMax =  -9.93317215147727E-08  8.72944261226047E+00
 cg2d: Sum(rhs),rhsMax =  -9.92735280647139E-08  8.73459893266904E+00
 cg2d: Sum(rhs),rhsMax =  -9.92147448641845E-08  8.73978430818157E+00
 cg2d: Sum(rhs),rhsMax =  -9.91560966667748E-08  8.74499735837366E+00
 cg2d: Sum(rhs),rhsMax =  -9.90966526615011E-08  8.75023614706347E+00
 cg2d: Sum(rhs),rhsMax =  -9.90366970654577E-08  8.75549829188909E+00
 cg2d: Sum(rhs),rhsMax =  -9.89772743764661E-08  8.76078107848702E+00
 cg2d: Sum(rhs),rhsMax =  -9.89177024735000E-08  8.76608155580086E+00
 cg2d: Sum(rhs),rhsMax =  -9.88579742511320E-08  8.77139664107964E+00
 cg2d: Sum(rhs),rhsMax =  -9.87977060162848E-08  8.77672320795606E+00
 cg2d: Sum(rhs),rhsMax =  -9.87382264838743E-08  8.78205816635757E+00
(PID.TID 0000.0001) Did not write pickup because writePickupAtEnd = FALSE
 DIC_SURFFORCING_INIT, it=   3600000 : Reading new data, i0,i1=   12    1
 QQ: pCO2 approximation method
 QQ first guess pH 8.2869849781645275,  7.129213793781922,  34.1535348423009,  2.0282,  5.43799999999999991E-4,  8.08490416966378689E-3,  2.3086000000000002
(PID.TID 0000.0001) // =======================================================
(PID.TID 0000.0001) // Model current state
(PID.TID 0000.0001) // =======================================================
(PID.TID 0000.0001) 
 EXTERNAL_FIELDS_LOAD, it=   3600000 : Reading new data, i0,i1=   12    1 (prev=   12    0 )
 DIC_FIELDS_LOAD, it=   3600000 : Reading new data, i0,i1=   12    1 (prev=   12    0 )
 cg2d: Sum(rhs),rhsMax =  -9.92433868418630E-08  8.73439671821315E+00
 cg2d: Sum(rhs),rhsMax =  -9.91844260056496E-08  8.73957958587058E+00
 cg2d: Sum(rhs),rhsMax =  -9.91252449011881E-08  8.74478969091806E+00
 cg2d: Sum(rhs),rhsMax =  -9.90665185440776E-08  8.75002495477880E+00
 cg2d: Sum(rhs),rhsMax =  -9.90068542705558E-08  8.75528284057604E+00
 cg2d: Sum(rhs),rhsMax =  -9.89473534218632E-08  8.76056047500076E+00
 cg2d: Sum(rhs),rhsMax =  -9.88878241514612E-08  8.76585475900637E+00
 cg2d: Sum(rhs),rhsMax =  -9.88279893476829E-08  8.77116249138180E+00
 cg2d: Sum(rhs),rhsMax =  -9.87682469144602E-08  8.77648047471154E+00
 cg2d: Sum(rhs),rhsMax =  -9.87087602766223E-08  8.78180560756084E+00
 cg2d: Sum(rhs),rhsMax =  -9.86489112619893E-08  8.78713494778165E+00
 cg2d: Sum(rhs),rhsMax =  -9.85891404070571E-08  8.79246575399440E+00
 cg2d: Sum(rhs),rhsMax =  -9.85293340249882E-08  8.79779549299699E+00
 cg2d: Sum(rhs),rhsMax =  -9.84700747608258E-08  8.80312181092759E+00
 cg2d: Sum(rhs),rhsMax =  -9.84108581292276E-08  8.80844249631459E+00
 cg2d: Sum(rhs),rhsMax =  -9.83516486030567E-08  8.81375547068360E+00
 cg2d: Sum(rhs),rhsMax =  -9.82926522397065E-08  8.81905885446822E+00
 cg2d: Sum(rhs),rhsMax =  -9.82337553523394E-08  8.82435106608147E+00
 cg2d: Sum(rhs),rhsMax =  -9.81751568929212E-08  8.82963093738125E+00
 cg2d: Sum(rhs),rhsMax =  -9.81166650149135E-08  8.83489782452132E+00
 cg2d: Sum(rhs),rhsMax =  -9.80585213028462E-08  8.84015168145881E+00
 cg2d: Sum(rhs),rhsMax =  -9.80007470730015E-08  8.84539306572338E+00
 cg2d: Sum(rhs),rhsMax =  -9.79429586323022E-08  8.85062306296846E+00
 cg2d: Sum(rhs),rhsMax =  -9.78853904598509E-08  8.85584316140559E+00
 cg2d: Sum(rhs),rhsMax =  -9.78280425556477E-08  8.86105508303604E+00
 cg2d: Sum(rhs),rhsMax =  -9.77709291305473E-08  8.86626061391844E+00
 cg2d: Sum(rhs),rhsMax =  -9.77132472712583E-08  8.87146147123075E+00
 cg2d: Sum(rhs),rhsMax =  -9.76563327981239E-08  8.87665923110881E+00
 cg2d: Sum(rhs),rhsMax =  -9.75990843699037E-08  8.88185530584736E+00
 cg2d: Sum(rhs),rhsMax =  -9.75420704207863E-08  8.88705095973601E+00
 EXTERNAL_FIELDS_LOAD, it=   3600030 : Reading new data, i0,i1=    1    2 (prev=   12    1 )
 DIC_FIELDS_LOAD, it=   3600030 : Reading new data, i0,i1=    1    2 (prev=   12    1 )
 cg2d: Sum(rhs),rhsMax =  -9.74853406887632E-08  8.89224735691429E+00
 cg2d: Sum(rhs),rhsMax =  -9.74287814869967E-08  8.89742706375180E+00
 cg2d: Sum(rhs),rhsMax =  -9.73723857100595E-08  8.90258000132907E+00
 cg2d: Sum(rhs),rhsMax =  -9.73164659967551E-08  8.90769672951691E+00
 cg2d: Sum(rhs),rhsMax =  -9.72612284044772E-08  8.91276878246959E+00
 cg2d: Sum(rhs),rhsMax =  -9.72070637317302E-08  8.91778889429735E+00
 cg2d: Sum(rhs),rhsMax =  -9.71530482729577E-08  8.92275113682099E+00
 cg2d: Sum(rhs),rhsMax =  -9.70993241367069E-08  8.92765100404361E+00
 cg2d: Sum(rhs),rhsMax =  -9.70471916161841E-08  8.93248545016401E+00
 cg2d: Sum(rhs),rhsMax =  -9.69955280538670E-08  8.93725287491615E+00
 cg2d: Sum(rhs),rhsMax =  -9.69441273923621E-08  8.94195305183593E+00
 cg2d: Sum(rhs),rhsMax =  -9.68941833434656E-08  8.94658701582531E+00
 cg2d: Sum(rhs),rhsMax =  -9.68450208915783E-08  8.95115692214719E+00
 cg2d: Sum(rhs),rhsMax =  -9.67962705544778E-08  8.95566589123099E+00
 cg2d: Sum(rhs),rhsMax =  -9.67482165492584E-08  8.96011786358850E+00
 cg2d: Sum(rhs),rhsMax =  -9.67008020325011E-08  8.96451747891563E+00
 cg2d: Sum(rhs),rhsMax =  -9.66539346336504E-08  8.96886998187158E+00
 cg2d: Sum(rhs),rhsMax =  -9.66078843589457E-08  8.97318115409823E+00
 cg2d: Sum(rhs),rhsMax =  -9.65621254067628E-08  8.97745726495199E+00
 cg2d: Sum(rhs),rhsMax =  -9.65159685506478E-08  8.98170502198163E+00
 cg2d: Sum(rhs),rhsMax =  -9.64709272466280E-08  8.98593151889555E+00
 cg2d: Sum(rhs),rhsMax =  -9.64258006774799E-08  8.99014423145949E+00
 cg2d: Sum(rhs),rhsMax =  -9.63806954246138E-08  8.99435085408351E+00
 cg2d: Sum(rhs),rhsMax =  -9.63354978011921E-08  8.99855914272681E+00
 cg2d: Sum(rhs),rhsMax =  -9.62904493917449E-08  9.00277662786875E+00
 cg2d: Sum(rhs),rhsMax =  -9.62449746566563E-08  9.00700998220796E+00
 cg2d: Sum(rhs),rhsMax =  -9.61997557169525E-08  9.01126574761483E+00
 cg2d: Sum(rhs),rhsMax =  -9.61540180810516E-08  9.01555039729210E+00
 cg2d: Sum(rhs),rhsMax =  -9.61077120109621E-08  9.01986971435378E+00
 cg2d: Sum(rhs),rhsMax =  -9.60613775191632E-08  9.02422880815445E+00
 cg2d: Sum(rhs),rhsMax =  -9.60143182737738E-08  9.02863205182447E+00
 cg2d: Sum(rhs),rhsMax =  -9.59668398081703E-08  9.03308295193821E+00
 cg2d: Sum(rhs),rhsMax =  -9.59189492277801E-08  9.03758400719746E+00
 cg2d: Sum(rhs),rhsMax =  -9.58706323217484E-08  9.04213663854453E+00
 cg2d: Sum(rhs),rhsMax =  -9.58215622404168E-08  9.04674109185253E+00
 cg2d: Sum(rhs),rhsMax =  -9.57721724148541E-08  9.05139640217902E+00
 cg2d: Sum(rhs),rhsMax =  -9.57223775799321E-08  9.05610040614876E+00
 cg2d: Sum(rhs),rhsMax =  -9.56718224642827E-08  9.06084979109159E+00
 cg2d: Sum(rhs),rhsMax =  -9.56211039238042E-08  9.06564017672268E+00
 cg2d: Sum(rhs),rhsMax =  -9.55700798499493E-08  9.07046622792088E+00
 cg2d: Sum(rhs),rhsMax =  -9.55189918272481E-08  9.07532179655311E+00
 cg2d: Sum(rhs),rhsMax =  -9.54672145780933E-08  9.08020008054443E+00
 cg2d: Sum(rhs),rhsMax =  -9.54156860188959E-08  9.08509379067778E+00
 cg2d: Sum(rhs),rhsMax =  -9.53640864054250E-08  9.08999532389517E+00
 cg2d: Sum(rhs),rhsMax =  -9.53120391500306E-08  9.09489685062687E+00
 cg2d: Sum(rhs),rhsMax =  -9.52604963799786E-08  9.09979078670731E+00
 cg2d: Sum(rhs),rhsMax =  -9.52091738781746E-08  9.10466952325132E+00
 cg2d: Sum(rhs),rhsMax =  -9.51581995423112E-08  9.10952586151125E+00
 cg2d: Sum(rhs),rhsMax =  -9.51075378452515E-08  9.11435305322486E+00
 cg2d: Sum(rhs),rhsMax =  -9.50568974644739E-08  9.11914489544444E+00
 cg2d: Sum(rhs),rhsMax =  -9.50070173644235E-08  9.12389583482653E+00
 cg2d: Sum(rhs),rhsMax =  -9.49582670273230E-08  9.12860106773695E+00
 cg2d: Sum(rhs),rhsMax =  -9.49094669522310E-08  9.13325671324743E+00
 cg2d: Sum(rhs),rhsMax =  -9.48612637330370E-08  9.13785989332165E+00
 cg2d: Sum(rhs),rhsMax =  -9.48139060596986E-08  9.14240888612431E+00
 cg2d: Sum(rhs),rhsMax =  -9.47671381368309E-08  9.14690322805975E+00
 cg2d: Sum(rhs),rhsMax =  -9.47210025969980E-08  9.15134376400067E+00
 cg2d: Sum(rhs),rhsMax =  -9.46753857533622E-08  9.15573262291172E+00
 cg2d: Sum(rhs),rhsMax =  -9.46305078741716E-08  9.16007311317651E+00
 cg2d: Sum(rhs),rhsMax =  -9.45855020972886E-08  9.16436954661381E+00
 EXTERNAL_FIELDS_LOAD, it=   3600090 : Reading new data, i0,i1=    2    3 (prev=    1    2 )
 DIC_FIELDS_LOAD, it=   3600090 : Reading new data, i0,i1=    2    3 (prev=    1    2 )
 cg2d: Sum(rhs),rhsMax =  -9.45416047670733E-08  9.16862700792054E+00
 cg2d: Sum(rhs),rhsMax =  -9.44977784911316E-08  9.17286965792043E+00
 cg2d: Sum(rhs),rhsMax =  -9.44538882663437E-08  9.17711460232796E+00
 cg2d: Sum(rhs),rhsMax =  -9.44097777733077E-08  9.18137827264839E+00
 cg2d: Sum(rhs),rhsMax =  -9.43655606988614E-08  9.18567586102450E+00
 cg2d: Sum(rhs),rhsMax =  -9.43208533499273E-08  9.19002086507332E+00
 cg2d: Sum(rhs),rhsMax =  -9.42755065125311E-08  9.19442473147613E+00
 cg2d: Sum(rhs),rhsMax =  -9.42294988703907E-08  9.19889660310093E+00
 cg2d: Sum(rhs),rhsMax =  -9.41831217460276E-08  9.20344317156002E+00
 cg2d: Sum(rhs),rhsMax =  -9.41357711781166E-08  9.20806863385625E+00
 cg2d: Sum(rhs),rhsMax =  -9.40875679589226E-08  9.21277472508850E+00
 cg2d: Sum(rhs),rhsMax =  -9.40387323566938E-08  9.21756082935263E+00
 cg2d: Sum(rhs),rhsMax =  -9.39891506845925E-08  9.22242415169496E+00
 cg2d: Sum(rhs),rhsMax =  -9.39387589937724E-08  9.22735992735964E+00
 cg2d: Sum(rhs),rhsMax =  -9.38874578082505E-08  9.23236166048178E+00
 cg2d: Sum(rhs),rhsMax =  -9.38360713576003E-08  9.23742136926884E+00
 cg2d: Sum(rhs),rhsMax =  -9.37847204340869E-08  9.24252982829311E+00
 cg2d: Sum(rhs),rhsMax =  -9.37326518624104E-08  9.24767682825910E+00
 cg2d: Sum(rhs),rhsMax =  -9.36799651185538E-08  9.25285135651627E+00
 cg2d: Sum(rhs),rhsMax =  -9.36278468088858E-08  9.25804181556396E+00
 cg2d: Sum(rhs),rhsMax =  -9.35753803332773E-08  9.26323624437734E+00
 cg2d: Sum(rhs),rhsMax =  -9.35233543941649E-08  9.26842252954541E+00
 cg2d: Sum(rhs),rhsMax =  -9.34712076627875E-08  9.27358855590945E+00
 cg2d: Sum(rhs),rhsMax =  -9.34198851609835E-08  9.27872221865362E+00
 cg2d: Sum(rhs),rhsMax =  -9.33687331894362E-08  9.28381269175841E+00
 cg2d: Sum(rhs),rhsMax =  -9.33183130769066E-08  9.28884990364347E+00
 cg2d: Sum(rhs),rhsMax =  -9.32684542931383E-08  9.29382460831193E+00
 cg2d: Sum(rhs),rhsMax =  -9.32194410552256E-08  9.29872876125425E+00
 cg2d: Sum(rhs),rhsMax =  -9.31711383600486E-08  9.30355578941157E+00
 cg2d: Sum(rhs),rhsMax =  -9.31240364820951E-08  9.30830071441787E+00
 cg2d: Sum(rhs),rhsMax =  -9.30773893514925E-08  9.31296016039586E+00
 cg2d: Sum(rhs),rhsMax =  -9.30318719838397E-08  9.31753230345820E+00
 cg2d: Sum(rhs),rhsMax =  -9.29872783217434E-08  9.32201677457960E+00
 cg2d: Sum(rhs),rhsMax =  -9.29437931063148E-08  9.32641453687162E+00
 cg2d: Sum(rhs),rhsMax =  -9.29007910599466E-08  9.33072777407330E+00
 cg2d: Sum(rhs),rhsMax =  -9.28590253579387E-08  9.33495977832897E+00
 cg2d: Sum(rhs),rhsMax =  -9.28177001924269E-08  9.33911483571782E+00
 cg2d: Sum(rhs),rhsMax =  -9.27770358316593E-08  9.34319809772528E+00
 cg2d: Sum(rhs),rhsMax =  -9.27373591252945E-08  9.34721542637213E+00
 cg2d: Sum(rhs),rhsMax =  -9.26982295368362E-08  9.35117321728378E+00
 cg2d: Sum(rhs),rhsMax =  -9.26594978523099E-08  9.35507820898651E+00
 cg2d: Sum(rhs),rhsMax =  -9.26212777585533E-08  9.35893728101038E+00
 cg2d: Sum(rhs),rhsMax =  -9.25836900478316E-08  9.36275724876052E+00
 cg2d: Sum(rhs),rhsMax =  -9.25467347201447E-08  9.36654466497940E+00
 cg2d: Sum(rhs),rhsMax =  -9.25093388559617E-08  9.37030563739009E+00
 cg2d: Sum(rhs),rhsMax =  -9.24723693174201E-08  9.37404566529748E+00
 cg2d: Sum(rhs),rhsMax =  -9.24358261045199E-08  9.37776950669782E+00
 cg2d: Sum(rhs),rhsMax =  -9.23998015878169E-08  9.38148107939576E+00
 cg2d: Sum(rhs),rhsMax =  -9.23633649563271E-08  9.38518340080342E+00
 cg2d: Sum(rhs),rhsMax =  -9.23271628039402E-08  9.38887856431341E+00
 cg2d: Sum(rhs),rhsMax =  -9.22907545941598E-08  9.39256775253961E+00
 cg2d: Sum(rhs),rhsMax =  -9.22549361348501E-08  9.39625127829926E+00
 cg2d: Sum(rhs),rhsMax =  -9.22186487173349E-08  9.39992865313115E+00
 cg2d: Sum(rhs),rhsMax =  -9.21831713185384E-08  9.40359867110262E+00
 cg2d: Sum(rhs),rhsMax =  -9.21473457538013E-08  9.40725949891390E+00
 cg2d: Sum(rhs),rhsMax =  -9.21119038821416E-08  9.41090875978471E+00
 cg2d: Sum(rhs),rhsMax =  -9.20763412182168E-08  9.41454361858659E+00
 cg2d: Sum(rhs),rhsMax =  -9.20410343496769E-08  9.41816086827301E+00
 cg2d: Sum(rhs),rhsMax =  -9.20060685416502E-08  9.42175701532902E+00
 cg2d: Sum(rhs),rhsMax =  -9.19711879987517E-08  9.42532836100955E+00
 EXTERNAL_FIELDS_LOAD, it=   3600150 : Reading new data, i0,i1=    3    4 (prev=    2    3 )
 DIC_FIELDS_LOAD, it=   3600150 : Reading new data, i0,i1=    3    4 (prev=    2    3 )
 cg2d: Sum(rhs),rhsMax =  -9.19367622032041E-08  9.42887108055882E+00
 cg2d: Sum(rhs),rhsMax =  -9.19030327395376E-08  9.43235832256638E+00
 cg2d: Sum(rhs),rhsMax =  -9.18696727580937E-08  9.43577294710938E+00
 cg2d: Sum(rhs),rhsMax =  -9.18375349101552E-08  9.43909901719340E+00
 cg2d: Sum(rhs),rhsMax =  -9.18056457521743E-08  9.44232226351574E+00
 cg2d: Sum(rhs),rhsMax =  -9.17754618967592E-08  9.44543045713848E+00
 cg2d: Sum(rhs),rhsMax =  -9.17468696570722E-08  9.44841368652191E+00
 cg2d: Sum(rhs),rhsMax =  -9.17188671678559E-08  9.45126453300903E+00
 cg2d: Sum(rhs),rhsMax =  -9.16929749905648E-08  9.45397814472091E+00
 cg2d: Sum(rhs),rhsMax =  -9.16680278351123E-08  9.45655223330268E+00
 cg2d: Sum(rhs),rhsMax =  -9.16445941356869E-08  9.45898700078271E+00
 cg2d: Sum(rhs),rhsMax =  -9.16223754643397E-08  9.46128500172268E+00
 cg2d: Sum(rhs),rhsMax =  -9.16011231311131E-08  9.46345095767279E+00
 cg2d: Sum(rhs),rhsMax =  -9.15811568802383E-08  9.46549153513779E+00
 cg2d: Sum(rhs),rhsMax =  -9.15625619768434E-08  9.46741508859273E+00
 cg2d: Sum(rhs),rhsMax =  -9.15451252581079E-08  9.46923137659912E+00
 cg2d: Sum(rhs),rhsMax =  -9.15285980340741E-08  9.47095124324780E+00
 cg2d: Sum(rhs),rhsMax =  -9.15126108225195E-08  9.47258633929544E+00
 cg2d: Sum(rhs),rhsMax =  -9.14974762622478E-08  9.47414881667898E+00
 cg2d: Sum(rhs),rhsMax =  -9.14831588261222E-08  9.47565102854520E+00
 cg2d: Sum(rhs),rhsMax =  -9.14691185016636E-08  9.47710524161440E+00
 cg2d: Sum(rhs),rhsMax =  -9.14552913400257E-08  9.47852337330871E+00
 cg2d: Sum(rhs),rhsMax =  -9.14417910280463E-08  9.47991675839448E+00
 cg2d: Sum(rhs),rhsMax =  -9.14288023068366E-08  9.48129594936036E+00
 cg2d: Sum(rhs),rhsMax =  -9.14153162057119E-08  9.48267055268677E+00
 cg2d: Sum(rhs),rhsMax =  -9.14016951014673E-08  9.48404910672501E+00
 cg2d: Sum(rhs),rhsMax =  -9.13883866360266E-08  9.48543898881096E+00
 cg2d: Sum(rhs),rhsMax =  -9.13749147457565E-08  9.48684634838855E+00
 cg2d: Sum(rhs),rhsMax =  -9.13611231112554E-08  9.48827608016959E+00
 cg2d: Sum(rhs),rhsMax =  -9.13465854068818E-08  9.48973182637241E+00
 cg2d: Sum(rhs),rhsMax =  -9.13324456064402E-08  9.49121598932757E+00
 cg2d: Sum(rhs),rhsMax =  -9.13176805283911E-08  9.49272976482376E+00
 cg2d: Sum(rhs),rhsMax =  -9.13029793991882E-08  9.49427318407705E+00
 cg2d: Sum(rhs),rhsMax =  -9.12876600978052E-08  9.49584517202971E+00
 cg2d: Sum(rhs),rhsMax =  -9.12722768475760E-08  9.49744362566448E+00
 cg2d: Sum(rhs),rhsMax =  -9.12563962174318E-08  9.49906550905340E+00
 cg2d: Sum(rhs),rhsMax =  -9.12406292741252E-08  9.50070696299551E+00
 cg2d: Sum(rhs),rhsMax =  -9.12245567974423E-08  9.50236342680402E+00
 cg2d: Sum(rhs),rhsMax =  -9.12086122184519E-08  9.50402976802920E+00
 cg2d: Sum(rhs),rhsMax =  -9.11920636781360E-08  9.50570042893596E+00
 cg2d: Sum(rhs),rhsMax =  -9.11760835720088E-08  9.50736956748404E+00
 cg2d: Sum(rhs),rhsMax =  -9.11599897790438E-08  9.50903122489705E+00
 cg2d: Sum(rhs),rhsMax =  -9.11439812512072E-08  9.51067944299842E+00
 cg2d: Sum(rhs),rhsMax =  -9.11286619498242E-08  9.51230836255520E+00
 cg2d: Sum(rhs),rhsMax =  -9.11128452685261E-08  9.51391232343393E+00
 cg2d: Sum(rhs),rhsMax =  -9.10978172896648E-08  9.51548598638282E+00
 cg2d: Sum(rhs),rhsMax =  -9.10825903588375E-08  9.51702443978652E+00
 cg2d: Sum(rhs),rhsMax =  -9.10679744947629E-08  9.51852327194360E+00
 cg2d: Sum(rhs),rhsMax =  -9.10538062726118E-08  9.51997861079381E+00
 cg2d: Sum(rhs),rhsMax =  -9.10403272769145E-08  9.52138713289450E+00
 cg2d: Sum(rhs),rhsMax =  -9.10271680254482E-08  9.52274605554116E+00
 cg2d: Sum(rhs),rhsMax =  -9.10143498344951E-08  9.52405313717331E+00
 cg2d: Sum(rhs),rhsMax =  -9.10022919242692E-08  9.52530666028232E+00
 cg2d: Sum(rhs),rhsMax =  -9.09905324419924E-08  9.52650541109617E+00
 cg2d: Sum(rhs),rhsMax =  -9.09794692915966E-08  9.52764864727963E+00
 cg2d: Sum(rhs),rhsMax =  -9.09689816808168E-08  9.52873605079492E+00
 cg2d: Sum(rhs),rhsMax =  -9.09588422359775E-08  9.52976767849440E+00
 cg2d: Sum(rhs),rhsMax =  -9.09493280687457E-08  9.53074391639987E+00
 cg2d: Sum(rhs),rhsMax =  -9.09404391791213E-08  9.53166530103624E+00
 cg2d: Sum(rhs),rhsMax =  -9.09316284491979E-08  9.53253252588939E+00
 EXTERNAL_FIELDS_LOAD, it=   3600210 : Reading new data, i0,i1=    4    5 (prev=    3    4 )
 DIC_FIELDS_LOAD, it=   3600210 : Reading new data, i0,i1=    4    5 (prev=    3    4 )
 cg2d: Sum(rhs),rhsMax =  -9.09236845814121E-08  9.53334634295211E+00
 cg2d: Sum(rhs),rhsMax =  -9.09162238826866E-08  9.53412016630968E+00
 cg2d: Sum(rhs),rhsMax =  -9.09088555545168E-08  9.53486144691540E+00
 cg2d: Sum(rhs),rhsMax =  -9.09020556605356E-08  9.53557668814411E+00
 cg2d: Sum(rhs),rhsMax =  -9.08950781308704E-08  9.53626990934916E+00
 cg2d: Sum(rhs),rhsMax =  -9.08885269268467E-08  9.53694479201801E+00
 cg2d: Sum(rhs),rhsMax =  -9.08819686173956E-08  9.53760402798875E+00
 cg2d: Sum(rhs),rhsMax =  -9.08758792661502E-08  9.53824943192211E+00
 cg2d: Sum(rhs),rhsMax =  -9.08692001644340E-08  9.53888215688552E+00
 cg2d: Sum(rhs),rhsMax =  -9.08633310814366E-08  9.53950304357000E+00
 cg2d: Sum(rhs),rhsMax =  -9.08575117364308E-08  9.54011304176576E+00
 cg2d: Sum(rhs),rhsMax =  -9.08516142317239E-08  9.54071301635899E+00
 cg2d: Sum(rhs),rhsMax =  -9.08458943627011E-08  9.54130322912294E+00
 cg2d: Sum(rhs),rhsMax =  -9.08400252797037E-08  9.54188272003942E+00
 cg2d: Sum(rhs),rhsMax =  -9.08349306882883E-08  9.54244934290944E+00
 cg2d: Sum(rhs),rhsMax =  -9.08295305634965E-08  9.54299999628384E+00
 cg2d: Sum(rhs),rhsMax =  -9.08241872821236E-08  9.54353092308816E+00
 cg2d: Sum(rhs),rhsMax =  -9.08189861092978E-08  9.54403796863502E+00
 cg2d: Sum(rhs),rhsMax =  -9.08142894218145E-08  9.54451678452915E+00
 cg2d: Sum(rhs),rhsMax =  -9.08097916862971E-08  9.54496303374895E+00
 cg2d: Sum(rhs),rhsMax =  -9.08056705384297E-08  9.54537256688658E+00
 cg2d: Sum(rhs),rhsMax =  -9.08016417611179E-08  9.54574155534994E+00
 cg2d: Sum(rhs),rhsMax =  -9.07979256226099E-08  9.54606657177462E+00
 cg2d: Sum(rhs),rhsMax =  -9.07952681927782E-08  9.54634467959792E+00
 cg2d: Sum(rhs),rhsMax =  -9.07924189164078E-08  9.54657345840157E+00
 cg2d: Sum(rhs),rhsMax =  -9.07902162339269E-08  9.54675102924543E+00
 cg2d: Sum(rhs),rhsMax =  -9.07886743561903E-08  9.54687605379506E+00
 cg2d: Sum(rhs),rhsMax =  -9.07877648614885E-08  9.54694771403842E+00
 cg2d: Sum(rhs),rhsMax =  -9.07869193156330E-08  9.54696566951997E+00
 cg2d: Sum(rhs),rhsMax =  -9.07865995714019E-08  9.54692999068711E+00
 cg2d: Sum(rhs),rhsMax =  -9.07872106381546E-08  9.54684108541375E+00
 cg2d: Sum(rhs),rhsMax =  -9.07884682987969E-08  9.54669963264824E+00
 cg2d: Sum(rhs),rhsMax =  -9.07898467517043E-08  9.54650651972953E+00
 cg2d: Sum(rhs),rhsMax =  -9.07915449488428E-08  9.54626274758502E+00
 cg2d: Sum(rhs),rhsMax =  -9.07941455352557E-08  9.54596935750525E+00
 cg2d: Sum(rhs),rhsMax =  -9.07970800767544E-08  9.54562738075971E+00
 cg2d: Sum(rhs),rhsMax =  -9.08000501453898E-08  9.54523778248193E+00
 cg2d: Sum(rhs),rhsMax =  -9.08038089164620E-08  9.54480140259877E+00
 cg2d: Sum(rhs),rhsMax =  -9.08078732209106E-08  9.54431888382345E+00
 cg2d: Sum(rhs),rhsMax =  -9.08128896526250E-08  9.54379063440704E+00
 cg2d: Sum(rhs),rhsMax =  -9.08179274006216E-08  9.54321682610369E+00
 cg2d: Sum(rhs),rhsMax =  -9.08231072571652E-08  9.54259741627488E+00
 cg2d: Sum(rhs),rhsMax =  -9.08294239820862E-08  9.54193218180504E+00
 cg2d: Sum(rhs),rhsMax =  -9.08357407070071E-08  9.54122075566689E+00
 cg2d: Sum(rhs),rhsMax =  -9.08426116552619E-08  9.54046266149910E+00
 cg2d: Sum(rhs),rhsMax =  -9.08497668206110E-08  9.53965734943055E+00
 cg2d: Sum(rhs),rhsMax =  -9.08576467395505E-08  9.53880424419014E+00
 cg2d: Sum(rhs),rhsMax =  -9.08659032461401E-08  9.53790282192021E+00
 cg2d: Sum(rhs),rhsMax =  -9.08746713434994E-08  9.53695268180845E+00
 cg2d: Sum(rhs),rhsMax =  -9.08840078750472E-08  9.53595362230667E+00
 cg2d: Sum(rhs),rhsMax =  -9.08936215182621E-08  9.53490571447803E+00
 cg2d: Sum(rhs),rhsMax =  -9.09042654484438E-08  9.53380930168364E+00
 cg2d: Sum(rhs),rhsMax =  -9.09145470018302E-08  9.53266493640869E+00
 cg2d: Sum(rhs),rhsMax =  -9.09259227910297E-08  9.53147332889492E+00
 cg2d: Sum(rhs),rhsMax =  -9.09384141323244E-08  9.53023537646442E+00
 cg2d: Sum(rhs),rhsMax =  -9.09505217805417E-08  9.52895220993865E+00
 cg2d: Sum(rhs),rhsMax =  -9.09629278567081E-08  9.52762520262973E+00
 cg2d: Sum(rhs),rhsMax =  -9.09757815747980E-08  9.52625594300855E+00
 cg2d: Sum(rhs),rhsMax =  -9.09892747813501E-08  9.52484621149773E+00
 cg2d: Sum(rhs),rhsMax =  -9.10029882561503E-08  9.52339794221070E+00
 EXTERNAL_FIELDS_LOAD, it=   3600270 : Reading new data, i0,i1=    5    6 (prev=    4    5 )
 DIC_FIELDS_LOAD, it=   3600270 : Reading new data, i0,i1=    5    6 (prev=    4    5 )
 cg2d: Sum(rhs),rhsMax =  -9.10169930534721E-08  9.52191318167782E+00
 cg2d: Sum(rhs),rhsMax =  -9.10311257484864E-08  9.52041761022813E+00
 cg2d: Sum(rhs),rhsMax =  -9.10455213443129E-08  9.51892843351038E+00
 cg2d: Sum(rhs),rhsMax =  -9.10593485059508E-08  9.51746258399289E+00
 cg2d: Sum(rhs),rhsMax =  -9.10729625047679E-08  9.51603636817957E+00
 cg2d: Sum(rhs),rhsMax =  -9.10860507019606E-08  9.51466517931999E+00
 cg2d: Sum(rhs),rhsMax =  -9.10986344138109E-08  9.51336322967766E+00
 cg2d: Sum(rhs),rhsMax =  -9.11102233658312E-08  9.51214329321166E+00
 cg2d: Sum(rhs),rhsMax =  -9.11212367782355E-08  9.51101645114812E+00
 cg2d: Sum(rhs),rhsMax =  -9.11308219997409E-08  9.50999185515969E+00
 cg2d: Sum(rhs),rhsMax =  -9.11397606273567E-08  9.50907652378690E+00
 cg2d: Sum(rhs),rhsMax =  -9.11473847509114E-08  9.50827517814543E+00
 cg2d: Sum(rhs),rhsMax =  -9.11540354309182E-08  9.50759014752173E+00
 cg2d: Sum(rhs),rhsMax =  -9.11595421371203E-08  9.50702134377118E+00
 cg2d: Sum(rhs),rhsMax =  -9.11640682943471E-08  9.50656629011210E+00
 cg2d: Sum(rhs),rhsMax =  -9.11673012637948E-08  9.50622019182364E+00
 cg2d: Sum(rhs),rhsMax =  -9.11696744765322E-08  9.50597606771963E+00
 cg2d: Sum(rhs),rhsMax =  -9.11708539774736E-08  9.50582494250500E+00
 cg2d: Sum(rhs),rhsMax =  -9.11716497853376E-08  9.50575608648473E+00
 cg2d: Sum(rhs),rhsMax =  -9.11714224116622E-08  9.50575729587021E+00
 cg2d: Sum(rhs),rhsMax =  -9.11708468720462E-08  9.50581523373235E+00
 cg2d: Sum(rhs),rhsMax =  -9.11699018502077E-08  9.50591575069248E+00
 cg2d: Sum(rhs),rhsMax =  -9.11685589244371E-08  9.50604420974297E+00
 cg2d: Sum(rhs),rhsMax =  -9.11669744141363E-08  9.50618583284504E+00
 cg2d: Sum(rhs),rhsMax =  -9.11656883317846E-08  9.50632606101357E+00
 cg2d: Sum(rhs),rhsMax =  -9.11643525114414E-08  9.50645090757042E+00
 cg2d: Sum(rhs),rhsMax =  -9.11635567035773E-08  9.50654729113363E+00
 cg2d: Sum(rhs),rhsMax =  -9.11632938027651E-08  9.50660334354173E+00
 cg2d: Sum(rhs),rhsMax =  -9.11633009081925E-08  9.50660868062301E+00
 cg2d: Sum(rhs),rhsMax =  -9.11639332912273E-08  9.50655462562515E+00
 cg2d: Sum(rhs),rhsMax =  -9.11649706836215E-08  9.50643436311089E+00
 cg2d: Sum(rhs),rhsMax =  -9.11672302095212E-08  9.50624304674150E+00
 cg2d: Sum(rhs),rhsMax =  -9.11696460548228E-08  9.50597781905916E+00
 cg2d: Sum(rhs),rhsMax =  -9.11727440211507E-08  9.50563777710892E+00
 cg2d: Sum(rhs),rhsMax =  -9.11770854372662E-08  9.50522393135291E+00
 cg2d: Sum(rhs),rhsMax =  -9.11816186999204E-08  9.50473911463816E+00
 cg2d: Sum(rhs),rhsMax =  -9.11870614572763E-08  9.50418773930678E+00
 cg2d: Sum(rhs),rhsMax =  -9.11928168534359E-08  9.50357558691374E+00
 cg2d: Sum(rhs),rhsMax =  -9.11992827923314E-08  9.50290964447458E+00
 cg2d: Sum(rhs),rhsMax =  -9.12065729608003E-08  9.50219791542795E+00
 cg2d: Sum(rhs),rhsMax =  -9.12139270781154E-08  9.50144918276843E+00
 cg2d: Sum(rhs),rhsMax =  -9.12212811954305E-08  9.50067274580360E+00
 cg2d: Sum(rhs),rhsMax =  -9.12293955934729E-08  9.49987815929010E+00
 cg2d: Sum(rhs),rhsMax =  -9.12369131356172E-08  9.49907498366882E+00
 cg2d: Sum(rhs),rhsMax =  -9.12447788437021E-08  9.49827255755378E+00
 cg2d: Sum(rhs),rhsMax =  -9.12528008711888E-08  9.49747978836020E+00
 cg2d: Sum(rhs),rhsMax =  -9.12602686753416E-08  9.49670496341604E+00
 cg2d: Sum(rhs),rhsMax =  -9.12679780640246E-08  9.49595558374171E+00
 cg2d: Sum(rhs),rhsMax =  -9.12747850634332E-08  9.49523821505845E+00
 cg2d: Sum(rhs),rhsMax =  -9.12811941589098E-08  9.49455836839740E+00
 cg2d: Sum(rhs),rhsMax =  -9.12878306280618E-08  9.49392042323925E+00
 cg2d: Sum(rhs),rhsMax =  -9.12937139219139E-08  9.49332754785973E+00
 cg2d: Sum(rhs),rhsMax =  -9.12992632606802E-08  9.49278165465699E+00
 cg2d: Sum(rhs),rhsMax =  -9.13035833605136E-08  9.49228339433203E+00
 cg2d: Sum(rhs),rhsMax =  -9.13086424247922E-08  9.49183218209292E+00
 cg2d: Sum(rhs),rhsMax =  -9.13127422563775E-08  9.49142625728328E+00
 cg2d: Sum(rhs),rhsMax =  -9.13163518134752E-08  9.49106276286301E+00
 cg2d: Sum(rhs),rhsMax =  -9.13194782015125E-08  9.49073783789306E+00
 cg2d: Sum(rhs),rhsMax =  -9.13225406407037E-08  9.49044672400271E+00
 cg2d: Sum(rhs),rhsMax =  -9.13253046519458E-08  9.49018390323782E+00
 EXTERNAL_FIELDS_LOAD, it=   3600330 : Reading new data, i0,i1=    6    7 (prev=    5    6 )
 DIC_FIELDS_LOAD, it=   3600330 : Reading new data, i0,i1=    6    7 (prev=    5    6 )
 cg2d: Sum(rhs),rhsMax =  -9.13276210212643E-08  9.48994325700856E+00
 cg2d: Sum(rhs),rhsMax =  -9.13303352945150E-08  9.48970801758053E+00
 cg2d: Sum(rhs),rhsMax =  -9.13328221940901E-08  9.48946471682098E+00
 cg2d: Sum(rhs),rhsMax =  -9.13353943587936E-08  9.48919980375378E+00
 cg2d: Sum(rhs),rhsMax =  -9.13383644274290E-08  9.48889996251626E+00
 cg2d: Sum(rhs),rhsMax =  -9.13418460868343E-08  9.48855235316500E+00
 cg2d: Sum(rhs),rhsMax =  -9.13461093432488E-08  9.48814487205053E+00
 cg2d: Sum(rhs),rhsMax =  -9.13508344524416E-08  9.48766639266868E+00
 cg2d: Sum(rhs),rhsMax =  -9.13563624749258E-08  9.48710698236420E+00
 cg2d: Sum(rhs),rhsMax =  -9.13624518261713E-08  9.48645808347463E+00
 cg2d: Sum(rhs),rhsMax =  -9.13698130489138E-08  9.48571268422533E+00
 cg2d: Sum(rhs),rhsMax =  -9.13783111400335E-08  9.48486545850383E+00
 cg2d: Sum(rhs),rhsMax =  -9.13876760932908E-08  9.48391285858374E+00
 cg2d: Sum(rhs),rhsMax =  -9.13977800109933E-08  9.48285315351105E+00
 cg2d: Sum(rhs),rhsMax =  -9.14093334358768E-08  9.48168641391458E+00
 cg2d: Sum(rhs),rhsMax =  -9.14215760872139E-08  9.48041445516485E+00
 cg2d: Sum(rhs),rhsMax =  -9.14348703418000E-08  9.47904073781749E+00
 cg2d: Sum(rhs),rhsMax =  -9.14490314585237E-08  9.47757022510765E+00
 cg2d: Sum(rhs),rhsMax =  -9.14641802296501E-08  9.47600920384239E+00
 cg2d: Sum(rhs),rhsMax =  -9.14802384954783E-08  9.47436507523804E+00
 cg2d: Sum(rhs),rhsMax =  -9.14970428311790E-08  9.47264612546539E+00
 cg2d: Sum(rhs),rhsMax =  -9.15143658630768E-08  9.47086128598380E+00
 cg2d: Sum(rhs),rhsMax =  -9.15317244221114E-08  9.46901988541289E+00
 cg2d: Sum(rhs),rhsMax =  -9.15503548526431E-08  9.46713139755286E+00
 cg2d: Sum(rhs),rhsMax =  -9.15688005420634E-08  9.46520519129246E+00
 cg2d: Sum(rhs),rhsMax =  -9.15879354579374E-08  9.46325027783096E+00
 cg2d: Sum(rhs),rhsMax =  -9.16070561629567E-08  9.46127510172983E+00
 cg2d: Sum(rhs),rhsMax =  -9.16269016215665E-08  9.45928736176468E+00
 cg2d: Sum(rhs),rhsMax =  -9.16458375854745E-08  9.45729384446051E+00
 cg2d: Sum(rhs),rhsMax =  -9.16652354021608E-08  9.45530032221759E+00
 cg2d: Sum(rhs),rhsMax =  -9.16847469056847E-08  9.45331147339530E+00
 cg2d: Sum(rhs),rhsMax =  -9.17041660386531E-08  9.45133082537812E+00
 cg2d: Sum(rhs),rhsMax =  -9.17234714847837E-08  9.44936073119909E+00
 cg2d: Sum(rhs),rhsMax =  -9.17423008672813E-08  9.44740238220463E+00
 cg2d: Sum(rhs),rhsMax =  -9.17614002560185E-08  9.44545585645758E+00
 cg2d: Sum(rhs),rhsMax =  -9.17801870059520E-08  9.44352020252140E+00
 cg2d: Sum(rhs),rhsMax =  -9.17989737558855E-08  9.44159355733174E+00
 cg2d: Sum(rhs),rhsMax =  -9.18179097197935E-08  9.43967327626014E+00
 cg2d: Sum(rhs),rhsMax =  -9.18367177860091E-08  9.43775607395104E+00
 cg2d: Sum(rhs),rhsMax =  -9.18552629514124E-08  9.43583817490269E+00
 cg2d: Sum(rhs),rhsMax =  -9.18742912858761E-08  9.43391546318717E+00
 cg2d: Sum(rhs),rhsMax =  -9.18933977800407E-08  9.43198362529795E+00
 cg2d: Sum(rhs),rhsMax =  -9.19123053222393E-08  9.43003828806143E+00
 cg2d: Sum(rhs),rhsMax =  -9.19319091963189E-08  9.42807514245689E+00
 cg2d: Sum(rhs),rhsMax =  -9.19516196518089E-08  9.42609005034801E+00
 cg2d: Sum(rhs),rhsMax =  -9.19711453661876E-08  9.42407914155286E+00
 cg2d: Sum(rhs),rhsMax =  -9.19916374186869E-08  9.42203890101561E+00
 cg2d: Sum(rhs),rhsMax =  -9.20122005254598E-08  9.41996625280574E+00
 cg2d: Sum(rhs),rhsMax =  -9.20328773190704E-08  9.41785862954787E+00
 cg2d: Sum(rhs),rhsMax =  -9.20541722848611E-08  9.41571402403211E+00
 cg2d: Sum(rhs),rhsMax =  -9.20761920042423E-08  9.41353104362712E+00
 cg2d: Sum(rhs),rhsMax =  -9.20975224971698E-08  9.41130897700722E+00
 cg2d: Sum(rhs),rhsMax =  -9.21202243375774E-08  9.40904782014454E+00
 cg2d: Sum(rhs),rhsMax =  -9.21427556477283E-08  9.40674826682519E+00
 cg2d: Sum(rhs),rhsMax =  -9.21658624974953E-08  9.40441167656376E+00
 cg2d: Sum(rhs),rhsMax =  -9.21897651551262E-08  9.40204003109270E+00
 cg2d: Sum(rhs),rhsMax =  -9.22136393910478E-08  9.39963588692061E+00
 cg2d: Sum(rhs),rhsMax =  -9.22377765277815E-08  9.39720232327049E+00
 cg2d: Sum(rhs),rhsMax =  -9.22617147125493E-08  9.39474287623570E+00
 cg2d: Sum(rhs),rhsMax =  -9.22866476571471E-08  9.39226147078604E+00
 EXTERNAL_FIELDS_LOAD, it=   3600390 : Reading new data, i0,i1=    7    8 (prev=    6    7 )
 DIC_FIELDS_LOAD, it=   3600390 : Reading new data, i0,i1=    7    8 (prev=    6    7 )
 cg2d: Sum(rhs),rhsMax =  -9.23120353490958E-08  9.38976233427929E+00
 cg2d: Sum(rhs),rhsMax =  -9.23369185557021E-08  9.38724381347799E+00
 cg2d: Sum(rhs),rhsMax =  -9.23620930848301E-08  9.38470550458213E+00
 cg2d: Sum(rhs),rhsMax =  -9.23878431535741E-08  9.38214640732935E+00
 cg2d: Sum(rhs),rhsMax =  -9.24133303215058E-08  9.37956498127073E+00
 cg2d: Sum(rhs),rhsMax =  -9.24395564538827E-08  9.37695924403383E+00
 cg2d: Sum(rhs),rhsMax =  -9.24659673273709E-08  9.37432689628576E+00
 cg2d: Sum(rhs),rhsMax =  -9.24926268908166E-08  9.37166545130188E+00
 cg2d: Sum(rhs),rhsMax =  -9.25199330481519E-08  9.36897236493602E+00
 cg2d: Sum(rhs),rhsMax =  -9.25472107837777E-08  9.36624514198210E+00
 cg2d: Sum(rhs),rhsMax =  -9.25749148450450E-08  9.36348144222541E+00
 cg2d: Sum(rhs),rhsMax =  -9.26027894365689E-08  9.36067916467522E+00
 cg2d: Sum(rhs),rhsMax =  -9.26316801042049E-08  9.35783651518778E+00
 cg2d: Sum(rhs),rhsMax =  -9.26604357687211E-08  9.35495205473915E+00
 cg2d: Sum(rhs),rhsMax =  -9.26899872411013E-08  9.35202472862356E+00
 cg2d: Sum(rhs),rhsMax =  -9.27198087197212E-08  9.34905386050751E+00
 cg2d: Sum(rhs),rhsMax =  -9.27502270542391E-08  9.34603912446753E+00
 cg2d: Sum(rhs),rhsMax =  -9.27809580275607E-08  9.34298052032945E+00
 cg2d: Sum(rhs),rhsMax =  -9.28122148025068E-08  9.33987837125357E+00
 cg2d: Sum(rhs),rhsMax =  -9.28438836922396E-08  9.33673332003228E+00
 cg2d: Sum(rhs),rhsMax =  -9.28756591633828E-08  9.33354631509102E+00
 cg2d: Sum(rhs),rhsMax =  -9.29085999246126E-08  9.33031856217985E+00
 cg2d: Sum(rhs),rhsMax =  -9.29414056827227E-08  9.32705144157814E+00
 cg2d: Sum(rhs),rhsMax =  -9.29742824951063E-08  9.32374640924821E+00
 cg2d: Sum(rhs),rhsMax =  -9.30079835370634E-08  9.32040491207867E+00
 cg2d: Sum(rhs),rhsMax =  -9.30417982658582E-08  9.31702830536998E+00
 cg2d: Sum(rhs),rhsMax =  -9.30764798567907E-08  9.31361778906816E+00
 cg2d: Sum(rhs),rhsMax =  -9.31104011669959E-08  9.31017435680010E+00
 cg2d: Sum(rhs),rhsMax =  -9.31454593455783E-08  9.30669874783390E+00
 cg2d: Sum(rhs),rhsMax =  -9.31809367443748E-08  9.30319140183628E+00
 cg2d: Sum(rhs),rhsMax =  -9.32159238686836E-08  9.29965242032067E+00
 cg2d: Sum(rhs),rhsMax =  -9.32518702256857E-08  9.29608155387300E+00
 cg2d: Sum(rhs),rhsMax =  -9.32883352788849E-08  9.29247816276956E+00
 cg2d: Sum(rhs),rhsMax =  -9.33245232204172E-08  9.28884120452690E+00
 cg2d: Sum(rhs),rhsMax =  -9.33613577558390E-08  9.28516924951164E+00
 cg2d: Sum(rhs),rhsMax =  -9.33982562401070E-08  9.28146051649491E+00
 cg2d: Sum(rhs),rhsMax =  -9.34364479121541E-08  9.27771291851975E+00
 cg2d: Sum(rhs),rhsMax =  -9.34740143065937E-08  9.27392411497484E+00
 cg2d: Sum(rhs),rhsMax =  -9.35126251988549E-08  9.27009157616147E+00
 cg2d: Sum(rhs),rhsMax =  -9.35518329470142E-08  9.26621266064052E+00
 cg2d: Sum(rhs),rhsMax =  -9.35912964905583E-08  9.26228469753356E+00
 cg2d: Sum(rhs),rhsMax =  -9.36311082000429E-08  9.25830502540661E+00
 cg2d: Sum(rhs),rhsMax =  -9.36718080879473E-08  9.25427104022615E+00
 cg2d: Sum(rhs),rhsMax =  -9.37130835154676E-08  9.25018025806528E+00
 cg2d: Sum(rhs),rhsMax =  -9.37547639523473E-08  9.24603037476154E+00
 cg2d: Sum(rhs),rhsMax =  -9.37974888870485E-08  9.24181932462259E+00
 cg2d: Sum(rhs),rhsMax =  -9.38402919814507E-08  9.23754533703139E+00
 cg2d: Sum(rhs),rhsMax =  -9.38843172093584E-08  9.23320698439808E+00
 cg2d: Sum(rhs),rhsMax =  -9.39290814017113E-08  9.22880321317793E+00
 cg2d: Sum(rhs),rhsMax =  -9.39739734917566E-08  9.22433335164241E+00
 cg2d: Sum(rhs),rhsMax =  -9.40200521881707E-08  9.21979710173837E+00
 cg2d: Sum(rhs),rhsMax =  -9.40667135296280E-08  9.21519452384442E+00
 cg2d: Sum(rhs),rhsMax =  -9.41140712029664E-08  9.21052602027441E+00
 cg2d: Sum(rhs),rhsMax =  -9.41621181027585E-08  9.20579231856880E+00
 cg2d: Sum(rhs),rhsMax =  -9.42108115964402E-08  9.20099445172383E+00
 cg2d: Sum(rhs),rhsMax =  -9.42603506359774E-08  9.19613373409314E+00
 cg2d: Sum(rhs),rhsMax =  -9.43106570616692E-08  9.19121172891709E+00
 cg2d: Sum(rhs),rhsMax =  -9.43619582471911E-08  9.18623021276131E+00
 cg2d: Sum(rhs),rhsMax =  -9.44129254776271E-08  9.18119115032627E+00
 cg2d: Sum(rhs),rhsMax =  -9.44648874678933E-08  9.17609666859133E+00
 EXTERNAL_FIELDS_LOAD, it=   3600450 : Reading new data, i0,i1=    8    9 (prev=    7    8 )
 DIC_FIELDS_LOAD, it=   3600450 : Reading new data, i0,i1=    8    9 (prev=    7    8 )
 cg2d: Sum(rhs),rhsMax =  -9.45180929079470E-08  9.17094900539886E+00
 cg2d: Sum(rhs),rhsMax =  -9.45713196642828E-08  9.16576037761048E+00
 cg2d: Sum(rhs),rhsMax =  -9.46249869571147E-08  9.16053907873528E+00
 cg2d: Sum(rhs),rhsMax =  -9.46787679367844E-08  9.15529303788953E+00
 cg2d: Sum(rhs),rhsMax =  -9.47327123412833E-08  9.15002961005962E+00
 cg2d: Sum(rhs),rhsMax =  -9.47873814993727E-08  9.14475542293395E+00
 cg2d: Sum(rhs),rhsMax =  -9.48415888046839E-08  9.13947626776025E+00
 cg2d: Sum(rhs),rhsMax =  -9.48963148061921E-08  9.13419703804716E+00
 cg2d: Sum(rhs),rhsMax =  -9.49505718494947E-08  9.12892171232682E+00
 cg2d: Sum(rhs),rhsMax =  -9.50055820680973E-08  9.12365335338700E+00
 cg2d: Sum(rhs),rhsMax =  -9.50602441207593E-08  9.11839411243203E+00
 cg2d: Sum(rhs),rhsMax =  -9.51149274897034E-08  9.11314523538299E+00
 cg2d: Sum(rhs),rhsMax =  -9.51689713701853E-08  9.10790707134369E+00
 cg2d: Sum(rhs),rhsMax =  -9.52241663298992E-08  9.10267908920085E+00
 cg2d: Sum(rhs),rhsMax =  -9.52785583763216E-08  9.09745990818067E+00
 cg2d: Sum(rhs),rhsMax =  -9.53332346398383E-08  9.09224734512777E+00
 cg2d: Sum(rhs),rhsMax =  -9.53879322196372E-08  9.08703847736888E+00
 cg2d: Sum(rhs),rhsMax =  -9.54423811094784E-08  9.08182972075513E+00
 cg2d: Sum(rhs),rhsMax =  -9.54974623823546E-08  9.07661692347198E+00
 cg2d: Sum(rhs),rhsMax =  -9.55527141854873E-08  9.07139547821490E+00
 cg2d: Sum(rhs),rhsMax =  -9.56078878289190E-08  9.06616045270155E+00
 cg2d: Sum(rhs),rhsMax =  -9.56632462134621E-08  9.06090673305150E+00
 cg2d: Sum(rhs),rhsMax =  -9.57190593453561E-08  9.05562917574046E+00
 cg2d: Sum(rhs),rhsMax =  -9.57753982788745E-08  9.05032276301453E+00
 cg2d: Sum(rhs),rhsMax =  -9.58323127520089E-08  9.04498274779792E+00
 cg2d: Sum(rhs),rhsMax =  -9.58890566948867E-08  9.03960479010611E+00
 cg2d: Sum(rhs),rhsMax =  -9.59469090844323E-08  9.03418508103277E+00
 cg2d: Sum(rhs),rhsMax =  -9.60046975251316E-08  9.02872044807494E+00
 cg2d: Sum(rhs),rhsMax =  -9.60634949365158E-08  9.02320843719522E+00
 cg2d: Sum(rhs),rhsMax =  -9.61234505325592E-08  9.01764736350553E+00
 cg2d: Sum(rhs),rhsMax =  -9.61829158541150E-08  9.01203632711249E+00
 cg2d: Sum(rhs),rhsMax =  -9.62436175200310E-08  9.00637519234014E+00
 cg2d: Sum(rhs),rhsMax =  -9.63047241953063E-08  9.00066454100738E+00
 cg2d: Sum(rhs),rhsMax =  -9.63663566722062E-08  8.99490560644289E+00
 cg2d: Sum(rhs),rhsMax =  -9.64286215321408E-08  8.98910019830229E+00
 cg2d: Sum(rhs),rhsMax =  -9.64914832479735E-08  8.98325060608421E+00
 cg2d: Sum(rhs),rhsMax =  -9.65549631359863E-08  8.97735949860674E+00
 cg2d: Sum(rhs),rhsMax =  -9.66191180395981E-08  8.97142982445055E+00
 cg2d: Sum(rhs),rhsMax =  -9.66832942594920E-08  8.96546471599943E+00
 cg2d: Sum(rhs),rhsMax =  -9.67482520763951E-08  8.95946740124540E+00
 cg2d: Sum(rhs),rhsMax =  -9.68132098932983E-08  8.95344112713886E+00
 cg2d: Sum(rhs),rhsMax =  -9.68790274669118E-08  8.94738909112794E+00
 cg2d: Sum(rhs),rhsMax =  -9.69447810916790E-08  8.94131438207753E+00
 cg2d: Sum(rhs),rhsMax =  -9.70111884157632E-08  8.93521991327319E+00
 cg2d: Sum(rhs),rhsMax =  -9.70773115227530E-08  8.92910833888471E+00
 cg2d: Sum(rhs),rhsMax =  -9.71445075492738E-08  8.92298199747039E+00
 cg2d: Sum(rhs),rhsMax =  -9.72113554098541E-08  8.91684290726808E+00
 cg2d: Sum(rhs),rhsMax =  -9.72787574937684E-08  8.91069264633776E+00
 cg2d: Sum(rhs),rhsMax =  -9.73459535202892E-08  8.90453228797114E+00
 cg2d: Sum(rhs),rhsMax =  -9.74135971887335E-08  8.89836249714105E+00
 cg2d: Sum(rhs),rhsMax =  -9.74817027099562E-08  8.89218368115518E+00
 cg2d: Sum(rhs),rhsMax =  -9.75496519117769E-08  8.88599608996445E+00
 cg2d: Sum(rhs),rhsMax =  -9.76179350686834E-08  8.87979980032782E+00
 cg2d: Sum(rhs),rhsMax =  -9.76860476953334E-08  8.87359466021019E+00
 cg2d: Sum(rhs),rhsMax =  -9.77549490244201E-08  8.86737992136571E+00
 cg2d: Sum(rhs),rhsMax =  -9.78237792992331E-08  8.86115449881272E+00
 cg2d: Sum(rhs),rhsMax =  -9.78925882577641E-08  8.85491714939279E+00
 cg2d: Sum(rhs),rhsMax =  -9.79620651264668E-08  8.84866650814923E+00
 cg2d: Sum(rhs),rhsMax =  -9.80318830556826E-08  8.84239908862083E+00
 cg2d: Sum(rhs),rhsMax =  -9.81016583523342E-08  8.83611205511795E+00
 EXTERNAL_FIELDS_LOAD, it=   3600510 : Reading new data, i0,i1=    9   10 (prev=    8    9 )
 DIC_FIELDS_LOAD, it=   3600510 : Reading new data, i0,i1=    9   10 (prev=    8    9 )
 cg2d: Sum(rhs),rhsMax =  -9.81721868242857E-08  8.82980306034887E+00
 cg2d: Sum(rhs),rhsMax =  -9.82427721396562E-08  8.82347164349139E+00
 cg2d: Sum(rhs),rhsMax =  -9.83135990395567E-08  8.81711735596894E+00
 cg2d: Sum(rhs),rhsMax =  -9.83851720093298E-08  8.81074020360017E+00
 cg2d: Sum(rhs),rhsMax =  -9.84564962891454E-08  8.80434063629974E+00
 cg2d: Sum(rhs),rhsMax =  -9.85286376931072E-08  8.79791959804717E+00
 cg2d: Sum(rhs),rhsMax =  -9.86011414738641E-08  8.79147850051498E+00
 cg2d: Sum(rhs),rhsMax =  -9.86734960406466E-08  8.78501923806664E+00
 cg2d: Sum(rhs),rhsMax =  -9.87464900958912E-08  8.77854412431977E+00
 cg2d: Sum(rhs),rhsMax =  -9.88197470519481E-08  8.77205585109022E+00
 cg2d: Sum(rhs),rhsMax =  -9.88934729662105E-08  8.76555740298602E+00
 cg2d: Sum(rhs),rhsMax =  -9.89669146633787E-08  8.75905198910442E+00
 cg2d: Sum(rhs),rhsMax =  -9.90407258427695E-08  8.75254295465281E+00
 cg2d: Sum(rhs),rhsMax =  -9.91145014950234E-08  8.74603368964057E+00
 cg2d: Sum(rhs),rhsMax =  -9.91886466295000E-08  8.73952755244439E+00
 cg2d: Sum(rhs),rhsMax =  -9.92623157003436E-08  8.73302782624689E+00
 cg2d: Sum(rhs),rhsMax =  -9.93363400425551E-08  8.72653766294564E+00
 cg2d: Sum(rhs),rhsMax =  -9.94104141227581E-08  8.72006002219781E+00
 cg2d: Sum(rhs),rhsMax =  -9.94844668866790E-08  8.71359759621992E+00
 cg2d: Sum(rhs),rhsMax =  -9.95583775420528E-08  8.70715278372291E+00
 cg2d: Sum(rhs),rhsMax =  -9.96322597757171E-08  8.70072771032166E+00
 cg2d: Sum(rhs),rhsMax =  -9.97059714791249E-08  8.69432422374462E+00
 cg2d: Sum(rhs),rhsMax =  -9.97792923840279E-08  8.68794392220557E+00
 cg2d: Sum(rhs),rhsMax =  -9.98527127649140E-08  8.68159287495532E+00
 cg2d: Sum(rhs),rhsMax =  -9.99256144496030E-08  8.67527594836007E+00
 cg2d: Sum(rhs),rhsMax =  -9.99983740257449E-08  8.66899648662334E+00
 cg2d: Sum(rhs),rhsMax =  -1.00070764119664E-07  8.66275674813775E+00
 cg2d: Sum(rhs),rhsMax =  -1.00142791836788E-07  8.65655808426570E+00
 cg2d: Sum(rhs),rhsMax =  -1.00214123222031E-07  8.65040095427649E+00
 cg2d: Sum(rhs),rhsMax =  -1.00285419080137E-07  8.64428511771589E+00
 cg2d: Sum(rhs),rhsMax =  -1.00356203347474E-07  8.63820779072895E+00
 cg2d: Sum(rhs),rhsMax =  -1.00426881033400E-07  8.63216610266613E+00
 cg2d: Sum(rhs),rhsMax =  -1.00497182131676E-07  8.62615664857018E+00
 cg2d: Sum(rhs),rhsMax =  -1.00566929006618E-07  8.62017549344574E+00
 cg2d: Sum(rhs),rhsMax =  -1.00636839306389E-07  8.61421824973427E+00
 cg2d: Sum(rhs),rhsMax =  -1.00706515127058E-07  8.60828014305759E+00
 cg2d: Sum(rhs),rhsMax =  -1.00776318845419E-07  8.60235619466164E+00
 cg2d: Sum(rhs),rhsMax =  -1.00845916506387E-07  8.59644141396147E+00
 cg2d: Sum(rhs),rhsMax =  -1.00915485745645E-07  8.59053104903554E+00
 cg2d: Sum(rhs),rhsMax =  -1.00985261042297E-07  8.58462072248315E+00
 cg2d: Sum(rhs),rhsMax =  -1.01055491086299E-07  8.57870663714626E+00
 cg2d: Sum(rhs),rhsMax =  -1.01125422702353E-07  8.57278566865890E+00
 cg2d: Sum(rhs),rhsMax =  -1.01195716695202E-07  8.56685532083521E+00
 cg2d: Sum(rhs),rhsMax =  -1.01266216745444E-07  8.56091374139585E+00
 cg2d: Sum(rhs),rhsMax =  -1.01337192859319E-07  8.55495975914983E+00
 cg2d: Sum(rhs),rhsMax =  -1.01408346608878E-07  8.54899275863313E+00
 cg2d: Sum(rhs),rhsMax =  -1.01479535885574E-07  8.54301265247851E+00
 cg2d: Sum(rhs),rhsMax =  -1.01551435705005E-07  8.53701978569626E+00
 cg2d: Sum(rhs),rhsMax =  -1.01622724457684E-07  8.53101490472480E+00
 cg2d: Sum(rhs),rhsMax =  -1.01695292187287E-07  8.52499919193590E+00
 cg2d: Sum(rhs),rhsMax =  -1.01767554383514E-07  8.51897431341724E+00
 cg2d: Sum(rhs),rhsMax =  -1.01840242905382E-07  8.51294235247767E+00
 cg2d: Sum(rhs),rhsMax =  -1.01912846162122E-07  8.50690569200869E+00
 cg2d: Sum(rhs),rhsMax =  -1.01985413891725E-07  8.50087005576702E+00
 cg2d: Sum(rhs),rhsMax =  -1.02058450579534E-07  8.49484015017416E+00
 cg2d: Sum(rhs),rhsMax =  -1.02131188839394E-07  8.48882063673028E+00
 cg2d: Sum(rhs),rhsMax =  -1.02203856044980E-07  8.48281607441673E+00
 cg2d: Sum(rhs),rhsMax =  -1.02276672464541E-07  8.47683086082370E+00
 cg2d: Sum(rhs),rhsMax =  -1.02349595465512E-07  8.47086915096995E+00
 cg2d: Sum(rhs),rhsMax =  -1.02421360281824E-07  8.46493476809303E+00
 EXTERNAL_FIELDS_LOAD, it=   3600570 : Reading new data, i0,i1=   10   11 (prev=    9   10 )
 DIC_FIELDS_LOAD, it=   3600570 : Reading new data, i0,i1=   10   11 (prev=    9   10 )
 cg2d: Sum(rhs),rhsMax =  -1.02493515896640E-07  8.45903109783263E+00
 cg2d: Sum(rhs),rhsMax =  -1.02564975179575E-07  8.45319648993583E+00
 cg2d: Sum(rhs),rhsMax =  -1.02634501786270E-07  8.44745634270964E+00
 cg2d: Sum(rhs),rhsMax =  -1.02703893389844E-07  8.44183524325516E+00
 cg2d: Sum(rhs),rhsMax =  -1.02770819410125E-07  8.43635626330932E+00
 cg2d: Sum(rhs),rhsMax =  -1.02836231974379E-07  8.43104036727980E+00
 cg2d: Sum(rhs),rhsMax =  -1.02899214482477E-07  8.42590597581903E+00
 cg2d: Sum(rhs),rhsMax =  -1.02960150627496E-07  8.42096861540595E+00
 cg2d: Sum(rhs),rhsMax =  -1.03018727770632E-07  8.41624063283881E+00
 cg2d: Sum(rhs),rhsMax =  -1.03074462742825E-07  8.41173099284368E+00
 cg2d: Sum(rhs),rhsMax =  -1.03127582917750E-07  8.40744522364360E+00
 cg2d: Sum(rhs),rhsMax =  -1.03177704602331E-07  8.40338548638234E+00
 cg2d: Sum(rhs),rhsMax =  -1.03225289649345E-07  8.39955071057647E+00
 cg2d: Sum(rhs),rhsMax =  -1.03270444640202E-07  8.39593686353065E+00
 cg2d: Sum(rhs),rhsMax =  -1.03312800092681E-07  8.39253726007720E+00
 cg2d: Sum(rhs),rhsMax =  -1.03352554958747E-07  8.38934286490718E+00
 cg2d: Sum(rhs),rhsMax =  -1.03389886874083E-07  8.38634267692018E+00
 cg2d: Sum(rhs),rhsMax =  -1.03425186637196E-07  8.38352418466840E+00
 cg2d: Sum(rhs),rhsMax =  -1.03458575040349E-07  8.38087384792736E+00
 cg2d: Sum(rhs),rhsMax =  -1.03489654179612E-07  8.37837764295235E+00
 cg2d: Sum(rhs),rhsMax =  -1.03519347760539E-07  8.37602165023152E+00
 cg2d: Sum(rhs),rhsMax =  -1.03547364460610E-07  8.37379265495454E+00
 cg2d: Sum(rhs),rhsMax =  -1.03573896126363E-07  8.37167859305842E+00
 cg2d: Sum(rhs),rhsMax =  -1.03599155920620E-07  8.36966841617237E+00
 cg2d: Sum(rhs),rhsMax =  -1.03623357006200E-07  8.36775262363169E+00
 cg2d: Sum(rhs),rhsMax =  -1.03646584648232E-07  8.36592322530019E+00
 cg2d: Sum(rhs),rhsMax =  -1.03668426731929E-07  8.36417370361670E+00
 cg2d: Sum(rhs),rhsMax =  -1.03689806962848E-07  8.36249893566327E+00
 cg2d: Sum(rhs),rhsMax =  -1.03710164012227E-07  8.36089512198643E+00
 cg2d: Sum(rhs),rhsMax =  -1.03729064448999E-07  8.35935972193128E+00
 cg2d: Sum(rhs),rhsMax =  -1.03747986202052E-07  8.35789132052859E+00
 cg2d: Sum(rhs),rhsMax =  -1.03765373182796E-07  8.35648953984663E+00
 cg2d: Sum(rhs),rhsMax =  -1.03782369365035E-07  8.35515503666620E+00
 cg2d: Sum(rhs),rhsMax =  -1.03798733164240E-07  8.35388959337713E+00
 cg2d: Sum(rhs),rhsMax =  -1.03813491136862E-07  8.35269612989214E+00
 cg2d: Sum(rhs),rhsMax =  -1.03827638042731E-07  8.35157865319166E+00
 cg2d: Sum(rhs),rhsMax =  -1.03841280463257E-07  8.35054220321588E+00
 cg2d: Sum(rhs),rhsMax =  -1.03853331268056E-07  8.34959282244478E+00
 cg2d: Sum(rhs),rhsMax =  -1.03864024936229E-07  8.34873757212784E+00
 cg2d: Sum(rhs),rhsMax =  -1.03873794898846E-07  8.34798443944571E+00
 cg2d: Sum(rhs),rhsMax =  -1.03881951929452E-07  8.34734205444848E+00
 cg2d: Sum(rhs),rhsMax =  -1.03888730507151E-07  8.34681927427749E+00
 cg2d: Sum(rhs),rhsMax =  -1.03893782466002E-07  8.34642479662444E+00
 cg2d: Sum(rhs),rhsMax =  -1.03896695691219E-07  8.34616690162161E+00
 cg2d: Sum(rhs),rhsMax =  -1.03898251779810E-07  8.34605328416144E+00
 cg2d: Sum(rhs),rhsMax =  -1.03897747294468E-07  8.34609086201575E+00
 cg2d: Sum(rhs),rhsMax =  -1.03895416714295E-07  8.34628560159372E+00
 cg2d: Sum(rhs),rhsMax =  -1.03891132141598E-07  8.34664238294981E+00
 cg2d: Sum(rhs),rhsMax =  -1.03884730151549E-07  8.34716488141953E+00
 cg2d: Sum(rhs),rhsMax =  -1.03876232060429E-07  8.34785544920597E+00
 cg2d: Sum(rhs),rhsMax =  -1.03865339440290E-07  8.34871504733891E+00
 cg2d: Sum(rhs),rhsMax =  -1.03852393351644E-07  8.34974320296400E+00
 cg2d: Sum(rhs),rhsMax =  -1.03837578535604E-07  8.35093803633076E+00
 cg2d: Sum(rhs),rhsMax =  -1.03820866570459E-07  8.35229628921908E+00
 cg2d: Sum(rhs),rhsMax =  -1.03801575335183E-07  8.35381348895399E+00
 cg2d: Sum(rhs),rhsMax =  -1.03780770643880E-07  8.35548405560547E+00
 cg2d: Sum(rhs),rhsMax =  -1.03758168279455E-07  8.35730145035772E+00
 cg2d: Sum(rhs),rhsMax =  -1.03734052459004E-07  8.35925834161856E+00
 cg2d: Sum(rhs),rhsMax =  -1.03707641585515E-07  8.36134677020027E+00
 cg2d: Sum(rhs),rhsMax =  -1.03680264373907E-07  8.36355833544679E+00
 EXTERNAL_FIELDS_LOAD, it=   3600630 : Reading new data, i0,i1=   11   12 (prev=   10   11 )
 DIC_FIELDS_LOAD, it=   3600630 : Reading new data, i0,i1=   11   12 (prev=   10   11 )
 cg2d: Sum(rhs),rhsMax =  -1.03651167648877E-07  8.36588437297216E+00
 cg2d: Sum(rhs),rhsMax =  -1.03620983793462E-07  8.36829873825493E+00
 cg2d: Sum(rhs),rhsMax =  -1.03590167555012E-07  8.37078098256463E+00
 cg2d: Sum(rhs),rhsMax =  -1.03558832620365E-07  8.37331076990736E+00
 cg2d: Sum(rhs),rhsMax =  -1.03526986094948E-07  8.37586828475342E+00
 cg2d: Sum(rhs),rhsMax =  -1.03494969039275E-07  8.37843651347270E+00
 cg2d: Sum(rhs),rhsMax =  -1.03462959089029E-07  8.38100058596186E+00
 cg2d: Sum(rhs),rhsMax =  -1.03431759157502E-07  8.38354800119352E+00
 cg2d: Sum(rhs),rhsMax =  -1.03400431328282E-07  8.38606907281455E+00
 cg2d: Sum(rhs),rhsMax =  -1.03369536930131E-07  8.38855705740912E+00
 cg2d: Sum(rhs),rhsMax =  -1.03339182544460E-07  8.39100818777902E+00
 cg2d: Sum(rhs),rhsMax =  -1.03309091059600E-07  8.39342162927294E+00
 cg2d: Sum(rhs),rhsMax =  -1.03279326424399E-07  8.39579937673915E+00
 cg2d: Sum(rhs),rhsMax =  -1.03250158645096E-07  8.39814606298476E+00
 cg2d: Sum(rhs),rhsMax =  -1.03221587721691E-07  8.40046867037939E+00
 cg2d: Sum(rhs),rhsMax =  -1.03192640210636E-07  8.40277617859981E+00
 cg2d: Sum(rhs),rhsMax =  -1.03164317977189E-07  8.40507915533000E+00
 cg2d: Sum(rhs),rhsMax =  -1.03135583628955E-07  8.40738929078001E+00
 cg2d: Sum(rhs),rhsMax =  -1.03106465587643E-07  8.40971893982490E+00
 cg2d: Sum(rhs),rhsMax =  -1.03077603341717E-07  8.41208069021930E+00
 cg2d: Sum(rhs),rhsMax =  -1.03047760546815E-07  8.41448664736628E+00
 cg2d: Sum(rhs),rhsMax =  -1.03017328001442E-07  8.41694808963461E+00
 cg2d: Sum(rhs),rhsMax =  -1.02985850958248E-07  8.41947641344255E+00
 cg2d: Sum(rhs),rhsMax =  -1.02953762848301E-07  8.42209465677943E+00
 cg2d: Sum(rhs),rhsMax =  -1.02920779454507E-07  8.42481840011152E+00
 cg2d: Sum(rhs),rhsMax =  -1.02885756803062E-07  8.42766143831664E+00
 cg2d: Sum(rhs),rhsMax =  -1.02849760708068E-07  8.43063562227923E+00
 cg2d: Sum(rhs),rhsMax =  -1.02811505087175E-07  8.43375048923612E+00
 cg2d: Sum(rhs),rhsMax =  -1.02771743115682E-07  8.43701312183894E+00
 cg2d: Sum(rhs),rhsMax =  -1.02730268736195E-07  8.44042805498092E+00
 cg2d: Sum(rhs),rhsMax =  -1.02686364300553E-07  8.44399728026233E+00
 cg2d: Sum(rhs),rhsMax =  -1.02641237731405E-07  8.44772028674299E+00
 cg2d: Sum(rhs),rhsMax =  -1.02594057693750E-07  8.45159419183708E+00
 cg2d: Sum(rhs),rhsMax =  -1.02545079982974E-07  8.45561389463918E+00
 cg2d: Sum(rhs),rhsMax =  -1.02494418285914E-07  8.45977229544668E+00
 cg2d: Sum(rhs),rhsMax =  -1.02442626825905E-07  8.46406043486096E+00
 cg2d: Sum(rhs),rhsMax =  -1.02389186906748E-07  8.46846786249842E+00
 cg2d: Sum(rhs),rhsMax =  -1.02334411167249E-07  8.47298294092153E+00
 cg2d: Sum(rhs),rhsMax =  -1.02278569613645E-07  8.47759310010859E+00
 cg2d: Sum(rhs),rhsMax =  -1.02221783038203E-07  8.48228511495217E+00
 cg2d: Sum(rhs),rhsMax =  -1.02164435134000E-07  8.48704540520819E+00
 cg2d: Sum(rhs),rhsMax =  -1.02106639587873E-07  8.49186038102640E+00
 cg2d: Sum(rhs),rhsMax =  -1.02048161920720E-07  8.49671683330553E+00
 cg2d: Sum(rhs),rhsMax =  -1.01989222400789E-07  8.50160229731839E+00
 cg2d: Sum(rhs),rhsMax =  -1.01930119456028E-07  8.50650541756349E+00
 cg2d: Sum(rhs),rhsMax =  -1.01871734159431E-07  8.51141606286167E+00
 cg2d: Sum(rhs),rhsMax =  -1.01813114383731E-07  8.51632550458549E+00
 cg2d: Sum(rhs),rhsMax =  -1.01754352499484E-07  8.52122658728227E+00
 cg2d: Sum(rhs),rhsMax =  -1.01695938781177E-07  8.52611387363114E+00
 cg2d: Sum(rhs),rhsMax =  -1.01637908755947E-07  8.53098375482528E+00
 cg2d: Sum(rhs),rhsMax =  -1.01580091893538E-07  8.53583450654913E+00
 cg2d: Sum(rhs),rhsMax =  -1.01522516615660E-07  8.54066629803099E+00
 cg2d: Sum(rhs),rhsMax =  -1.01465325030858E-07  8.54548114840508E+00
 cg2d: Sum(rhs),rhsMax =  -1.01408510033707E-07  8.55028281355603E+00
 cg2d: Sum(rhs),rhsMax =  -1.01351844250530E-07  8.55507663782142E+00
 cg2d: Sum(rhs),rhsMax =  -1.01294901355686E-07  8.55986938569464E+00
 cg2d: Sum(rhs),rhsMax =  -1.01238242677937E-07  8.56466907941720E+00
 cg2d: Sum(rhs),rhsMax =  -1.01181711897880E-07  8.56948481849350E+00
 cg2d: Sum(rhs),rhsMax =  -1.01124427942523E-07  8.57432655386490E+00
 cg2d: Sum(rhs),rhsMax =  -1.01066994773191E-07  8.57920482306538E+00
 EXTERNAL_FIELDS_LOAD, it=   3600690 : Reading new data, i0,i1=   12    1 (prev=   11   12 )
 DIC_FIELDS_LOAD, it=   3600690 : Reading new data, i0,i1=   12    1 (prev=   11   12 )
 cg2d: Sum(rhs),rhsMax =  -1.01009099751082E-07  8.58413045456863E+00
 cg2d: Sum(rhs),rhsMax =  -1.00950970249869E-07  8.58908772075261E+00
 cg2d: Sum(rhs),rhsMax =  -1.00892201260194E-07  8.59407113784658E+00
 cg2d: Sum(rhs),rhsMax =  -1.00833979388426E-07  8.59907533504329E+00
 cg2d: Sum(rhs),rhsMax =  -1.00775366718153E-07  8.60409527812640E+00
 cg2d: Sum(rhs),rhsMax =  -1.00716533779632E-07  8.60912639608676E+00
 cg2d: Sum(rhs),rhsMax =  -1.00657807422522E-07  8.61416467727663E+00
 cg2d: Sum(rhs),rhsMax =  -1.00599194752249E-07  8.61920670304104E+00
 cg2d: Sum(rhs),rhsMax =  -1.00540219705181E-07  8.62424959025954E+00
 cg2d: Sum(rhs),rhsMax =  -1.00481713616318E-07  8.62929084710763E+00
 cg2d: Sum(rhs),rhsMax =  -1.00423278581729E-07  8.63432823431656E+00
 cg2d: Sum(rhs),rhsMax =  -1.00365085131671E-07  8.63935967110789E+00
 cg2d: Sum(rhs),rhsMax =  -1.00306984052168E-07  8.64438326330631E+00
 cg2d: Sum(rhs),rhsMax =  -1.00248698231553E-07  8.64939736363611E+00
 cg2d: Sum(rhs),rhsMax =  -1.00191144269957E-07  8.65440069908248E+00
 cg2d: Sum(rhs),rhsMax =  -1.00133568992078E-07  8.65939260929048E+00
 cg2d: Sum(rhs),rhsMax =  -1.00076100295610E-07  8.66437312037654E+00
 cg2d: Sum(rhs),rhsMax =  -1.00019036608501E-07  8.66934290835576E+00
 cg2d: Sum(rhs),rhsMax =  -9.99617597585711E-08  8.67430225124478E+00
 cg2d: Sum(rhs),rhsMax =  -9.99047102823170E-08  8.67925494682890E+00
 cg2d: Sum(rhs),rhsMax =  -9.98482363456787E-08  8.68420608713978E+00
 cg2d: Sum(rhs),rhsMax =  -9.97913716105359E-08  8.68916081980566E+00
 cg2d: Sum(rhs),rhsMax =  -9.97343434505638E-08  8.69412416784580E+00
 cg2d: Sum(rhs),rhsMax =  -9.96773295014464E-08  8.69910085245627E+00
 cg2d: Sum(rhs),rhsMax =  -9.96202871306195E-08  8.70409517445086E+00
 cg2d: Sum(rhs),rhsMax =  -9.95629250155616E-08  8.70911095741398E+00
 cg2d: Sum(rhs),rhsMax =  -9.95059110664442E-08  8.71415148969223E+00
 cg2d: Sum(rhs),rhsMax =  -9.94480160443345E-08  8.71921930590513E+00
 cg2d: Sum(rhs),rhsMax =  -9.93902702361993E-08  8.72431607432102E+00
 cg2d: Sum(rhs),rhsMax =  -9.93317215147727E-08  8.72944261226047E+00
 cg2d: Sum(rhs),rhsMax =  -9.92735280647139E-08  8.73459893266904E+00
 cg2d: Sum(rhs),rhsMax =  -9.92147448641845E-08  8.73978430818157E+00
 cg2d: Sum(rhs),rhsMax =  -9.91560966667748E-08  8.74499735837366E+00
 cg2d: Sum(rhs),rhsMax =  -9.90966526615011E-08  8.75023614706347E+00
 cg2d: Sum(rhs),rhsMax =  -9.90366970654577E-08  8.75549829188909E+00
 cg2d: Sum(rhs),rhsMax =  -9.89772743764661E-08  8.76078107848702E+00
 cg2d: Sum(rhs),rhsMax =  -9.89177024735000E-08  8.76608155580086E+00
 cg2d: Sum(rhs),rhsMax =  -9.88579742511320E-08  8.77139664107964E+00
 cg2d: Sum(rhs),rhsMax =  -9.87977060162848E-08  8.77672320795606E+00
 cg2d: Sum(rhs),rhsMax =  -9.87382264838743E-08  8.78205816635757E+00
(PID.TID 0000.0001) Did not write pickup because writePickupAtEnd = FALSE
 DIC_SURFFORCING_INIT, it=   3600000 : Reading new data, i0,i1=   12    1
 QQ: pCO2 approximation method
 QQ first guess pH 8.2869849781645275,  7.129213793781922,  34.1535348423009,  2.0282,  5.43799999999999991E-4,  8.08490416966378689E-3,  2.3086000000000002
(PID.TID 0000.0001) // =======================================================
(PID.TID 0000.0001) // Model current state
(PID.TID 0000.0001) // =======================================================
(PID.TID 0000.0001) 
 EXTERNAL_FIELDS_LOAD, it=   3600000 : Reading new data, i0,i1=   12    1 (prev=   12    0 )
 DIC_FIELDS_LOAD, it=   3600000 : Reading new data, i0,i1=   12    1 (prev=   12    0 )
 cg2d: Sum(rhs),rhsMax =  -9.92433868418630E-08  8.73439671821315E+00
 cg2d: Sum(rhs),rhsMax =  -9.91844260056496E-08  8.73957958587058E+00
 cg2d: Sum(rhs),rhsMax =  -9.91252449011881E-08  8.74478969091806E+00
 cg2d: Sum(rhs),rhsMax =  -9.90665185440776E-08  8.75002495477880E+00
 cg2d: Sum(rhs),rhsMax =  -9.90068542705558E-08  8.75528284057604E+00
 cg2d: Sum(rhs),rhsMax =  -9.89473534218632E-08  8.76056047500076E+00
 cg2d: Sum(rhs),rhsMax =  -9.88878241514612E-08  8.76585475900637E+00
 cg2d: Sum(rhs),rhsMax =  -9.88279893476829E-08  8.77116249138180E+00
 cg2d: Sum(rhs),rhsMax =  -9.87682469144602E-08  8.77648047471154E+00
 cg2d: Sum(rhs),rhsMax =  -9.87087602766223E-08  8.78180560756084E+00
 cg2d: Sum(rhs),rhsMax =  -9.86489112619893E-08  8.78713494778165E+00
 cg2d: Sum(rhs),rhsMax =  -9.85891404070571E-08  8.79246575399440E+00
 cg2d: Sum(rhs),rhsMax =  -9.85293340249882E-08  8.79779549299699E+00
 cg2d: Sum(rhs),rhsMax =  -9.84700747608258E-08  8.80312181092759E+00
 cg2d: Sum(rhs),rhsMax =  -9.84108581292276E-08  8.80844249631459E+00
 cg2d: Sum(rhs),rhsMax =  -9.83516486030567E-08  8.81375547068360E+00
 cg2d: Sum(rhs),rhsMax =  -9.82926522397065E-08  8.81905885446822E+00
 cg2d: Sum(rhs),rhsMax =  -9.82337553523394E-08  8.82435106608147E+00
 cg2d: Sum(rhs),rhsMax =  -9.81751568929212E-08  8.82963093738125E+00
 cg2d: Sum(rhs),rhsMax =  -9.81166650149135E-08  8.83489782452132E+00
 cg2d: Sum(rhs),rhsMax =  -9.80585213028462E-08  8.84015168145881E+00
 cg2d: Sum(rhs),rhsMax =  -9.80007470730015E-08  8.84539306572338E+00
 cg2d: Sum(rhs),rhsMax =  -9.79429586323022E-08  8.85062306296846E+00
 cg2d: Sum(rhs),rhsMax =  -9.78853904598509E-08  8.85584316140559E+00
 cg2d: Sum(rhs),rhsMax =  -9.78280425556477E-08  8.86105508303604E+00
 cg2d: Sum(rhs),rhsMax =  -9.77709291305473E-08  8.86626061391844E+00
 cg2d: Sum(rhs),rhsMax =  -9.77132472712583E-08  8.87146147123075E+00
 cg2d: Sum(rhs),rhsMax =  -9.76563327981239E-08  8.87665923110881E+00
 cg2d: Sum(rhs),rhsMax =  -9.75990843699037E-08  8.88185530584736E+00
 cg2d: Sum(rhs),rhsMax =  -9.75420704207863E-08  8.88705095973601E+00
 EXTERNAL_FIELDS_LOAD, it=   3600030 : Reading new data, i0,i1=    1    2 (prev=   12    1 )
 DIC_FIELDS_LOAD, it=   3600030 : Reading new data, i0,i1=    1    2 (prev=   12    1 )
 cg2d: Sum(rhs),rhsMax =  -9.74853406887632E-08  8.89224735691429E+00
 cg2d: Sum(rhs),rhsMax =  -9.74287814869967E-08  8.89742706375180E+00
 cg2d: Sum(rhs),rhsMax =  -9.73723857100595E-08  8.90258000132907E+00
 cg2d: Sum(rhs),rhsMax =  -9.73164659967551E-08  8.90769672951691E+00
 cg2d: Sum(rhs),rhsMax =  -9.72612284044772E-08  8.91276878246959E+00
 cg2d: Sum(rhs),rhsMax =  -9.72070637317302E-08  8.91778889429735E+00
 cg2d: Sum(rhs),rhsMax =  -9.71530482729577E-08  8.92275113682099E+00
 cg2d: Sum(rhs),rhsMax =  -9.70993241367069E-08  8.92765100404361E+00
 cg2d: Sum(rhs),rhsMax =  -9.70471916161841E-08  8.93248545016401E+00
 cg2d: Sum(rhs),rhsMax =  -9.69955280538670E-08  8.93725287491615E+00
 cg2d: Sum(rhs),rhsMax =  -9.69441273923621E-08  8.94195305183593E+00
 cg2d: Sum(rhs),rhsMax =  -9.68941833434656E-08  8.94658701582531E+00
 cg2d: Sum(rhs),rhsMax =  -9.68450208915783E-08  8.95115692214719E+00
 cg2d: Sum(rhs),rhsMax =  -9.67962705544778E-08  8.95566589123099E+00
 cg2d: Sum(rhs),rhsMax =  -9.67482165492584E-08  8.96011786358850E+00
 cg2d: Sum(rhs),rhsMax =  -9.67008020325011E-08  8.96451747891563E+00
 cg2d: Sum(rhs),rhsMax =  -9.66539346336504E-08  8.96886998187158E+00
 cg2d: Sum(rhs),rhsMax =  -9.66078843589457E-08  8.97318115409823E+00
 cg2d: Sum(rhs),rhsMax =  -9.65621254067628E-08  8.97745726495199E+00
 cg2d: Sum(rhs),rhsMax =  -9.65159685506478E-08  8.98170502198163E+00
 cg2d: Sum(rhs),rhsMax =  -9.64709272466280E-08  8.98593151889555E+00
 cg2d: Sum(rhs),rhsMax =  -9.64258006774799E-08  8.99014423145949E+00
 cg2d: Sum(rhs),rhsMax =  -9.63806954246138E-08  8.99435085408351E+00
 cg2d: Sum(rhs),rhsMax =  -9.63354978011921E-08  8.99855914272681E+00
 cg2d: Sum(rhs),rhsMax =  -9.62904493917449E-08  9.00277662786875E+00
 cg2d: Sum(rhs),rhsMax =  -9.62449746566563E-08  9.00700998220796E+00
 cg2d: Sum(rhs),rhsMax =  -9.61997557169525E-08  9.01126574761483E+00
 cg2d: Sum(rhs),rhsMax =  -9.61540180810516E-08  9.01555039729210E+00
 cg2d: Sum(rhs),rhsMax =  -9.61077120109621E-08  9.01986971435378E+00
 cg2d: Sum(rhs),rhsMax =  -9.60613775191632E-08  9.02422880815445E+00
 cg2d: Sum(rhs),rhsMax =  -9.60143182737738E-08  9.02863205182447E+00
 cg2d: Sum(rhs),rhsMax =  -9.59668398081703E-08  9.03308295193821E+00
 cg2d: Sum(rhs),rhsMax =  -9.59189492277801E-08  9.03758400719746E+00
 cg2d: Sum(rhs),rhsMax =  -9.58706323217484E-08  9.04213663854453E+00
 cg2d: Sum(rhs),rhsMax =  -9.58215622404168E-08  9.04674109185253E+00
 cg2d: Sum(rhs),rhsMax =  -9.57721724148541E-08  9.05139640217902E+00
 cg2d: Sum(rhs),rhsMax =  -9.57223775799321E-08  9.05610040614876E+00
 cg2d: Sum(rhs),rhsMax =  -9.56718224642827E-08  9.06084979109159E+00
 cg2d: Sum(rhs),rhsMax =  -9.56211039238042E-08  9.06564017672268E+00
 cg2d: Sum(rhs),rhsMax =  -9.55700798499493E-08  9.07046622792088E+00
 cg2d: Sum(rhs),rhsMax =  -9.55189918272481E-08  9.07532179655311E+00
 cg2d: Sum(rhs),rhsMax =  -9.54672145780933E-08  9.08020008054443E+00
 cg2d: Sum(rhs),rhsMax =  -9.54156860188959E-08  9.08509379067778E+00
 cg2d: Sum(rhs),rhsMax =  -9.53640864054250E-08  9.08999532389517E+00
 cg2d: Sum(rhs),rhsMax =  -9.53120391500306E-08  9.09489685062687E+00
 cg2d: Sum(rhs),rhsMax =  -9.52604963799786E-08  9.09979078670731E+00
 cg2d: Sum(rhs),rhsMax =  -9.52091738781746E-08  9.10466952325132E+00
 cg2d: Sum(rhs),rhsMax =  -9.51581995423112E-08  9.10952586151125E+00
 cg2d: Sum(rhs),rhsMax =  -9.51075378452515E-08  9.11435305322486E+00
 cg2d: Sum(rhs),rhsMax =  -9.50568974644739E-08  9.11914489544444E+00
 cg2d: Sum(rhs),rhsMax =  -9.50070173644235E-08  9.12389583482653E+00
 cg2d: Sum(rhs),rhsMax =  -9.49582670273230E-08  9.12860106773695E+00
 cg2d: Sum(rhs),rhsMax =  -9.49094669522310E-08  9.13325671324743E+00
 cg2d: Sum(rhs),rhsMax =  -9.48612637330370E-08  9.13785989332165E+00
 cg2d: Sum(rhs),rhsMax =  -9.48139060596986E-08  9.14240888612431E+00
 cg2d: Sum(rhs),rhsMax =  -9.47671381368309E-08  9.14690322805975E+00
 cg2d: Sum(rhs),rhsMax =  -9.47210025969980E-08  9.15134376400067E+00
 cg2d: Sum(rhs),rhsMax =  -9.46753857533622E-08  9.15573262291172E+00
 cg2d: Sum(rhs),rhsMax =  -9.46305078741716E-08  9.16007311317651E+00
 cg2d: Sum(rhs),rhsMax =  -9.45855020972886E-08  9.16436954661381E+00
 EXTERNAL_FIELDS_LOAD, it=   3600090 : Reading new data, i0,i1=    2    3 (prev=    1    2 )
 DIC_FIELDS_LOAD, it=   3600090 : Reading new data, i0,i1=    2    3 (prev=    1    2 )
 cg2d: Sum(rhs),rhsMax =  -9.45416047670733E-08  9.16862700792054E+00
 cg2d: Sum(rhs),rhsMax =  -9.44977784911316E-08  9.17286965792043E+00
 cg2d: Sum(rhs),rhsMax =  -9.44538882663437E-08  9.17711460232796E+00
 cg2d: Sum(rhs),rhsMax =  -9.44097777733077E-08  9.18137827264839E+00
 cg2d: Sum(rhs),rhsMax =  -9.43655606988614E-08  9.18567586102450E+00
 cg2d: Sum(rhs),rhsMax =  -9.43208533499273E-08  9.19002086507332E+00
 cg2d: Sum(rhs),rhsMax =  -9.42755065125311E-08  9.19442473147613E+00
 cg2d: Sum(rhs),rhsMax =  -9.42294988703907E-08  9.19889660310093E+00
 cg2d: Sum(rhs),rhsMax =  -9.41831217460276E-08  9.20344317156002E+00
 cg2d: Sum(rhs),rhsMax =  -9.41357711781166E-08  9.20806863385625E+00
 cg2d: Sum(rhs),rhsMax =  -9.40875679589226E-08  9.21277472508850E+00
 cg2d: Sum(rhs),rhsMax =  -9.40387323566938E-08  9.21756082935263E+00
 cg2d: Sum(rhs),rhsMax =  -9.39891506845925E-08  9.22242415169496E+00
 cg2d: Sum(rhs),rhsMax =  -9.39387589937724E-08  9.22735992735964E+00
 cg2d: Sum(rhs),rhsMax =  -9.38874578082505E-08  9.23236166048178E+00
 cg2d: Sum(rhs),rhsMax =  -9.38360713576003E-08  9.23742136926884E+00
 cg2d: Sum(rhs),rhsMax =  -9.37847204340869E-08  9.24252982829311E+00
 cg2d: Sum(rhs),rhsMax =  -9.37326518624104E-08  9.24767682825910E+00
 cg2d: Sum(rhs),rhsMax =  -9.36799651185538E-08  9.25285135651627E+00
 cg2d: Sum(rhs),rhsMax =  -9.36278468088858E-08  9.25804181556396E+00
 cg2d: Sum(rhs),rhsMax =  -9.35753803332773E-08  9.26323624437734E+00
 cg2d: Sum(rhs),rhsMax =  -9.35233543941649E-08  9.26842252954541E+00
 cg2d: Sum(rhs),rhsMax =  -9.34712076627875E-08  9.27358855590945E+00
 cg2d: Sum(rhs),rhsMax =  -9.34198851609835E-08  9.27872221865362E+00
 cg2d: Sum(rhs),rhsMax =  -9.33687331894362E-08  9.28381269175841E+00
 cg2d: Sum(rhs),rhsMax =  -9.33183130769066E-08  9.28884990364347E+00
 cg2d: Sum(rhs),rhsMax =  -9.32684542931383E-08  9.29382460831193E+00
 cg2d: Sum(rhs),rhsMax =  -9.32194410552256E-08  9.29872876125425E+00
 cg2d: Sum(rhs),rhsMax =  -9.31711383600486E-08  9.30355578941157E+00
 cg2d: Sum(rhs),rhsMax =  -9.31240364820951E-08  9.30830071441787E+00
 cg2d: Sum(rhs),rhsMax =  -9.30773893514925E-08  9.31296016039586E+00
 cg2d: Sum(rhs),rhsMax =  -9.30318719838397E-08  9.31753230345820E+00
 cg2d: Sum(rhs),rhsMax =  -9.29872783217434E-08  9.32201677457960E+00
 cg2d: Sum(rhs),rhsMax =  -9.29437931063148E-08  9.32641453687162E+00
 cg2d: Sum(rhs),rhsMax =  -9.29007910599466E-08  9.33072777407330E+00
 cg2d: Sum(rhs),rhsMax =  -9.28590253579387E-08  9.33495977832897E+00
 cg2d: Sum(rhs),rhsMax =  -9.28177001924269E-08  9.33911483571782E+00
 cg2d: Sum(rhs),rhsMax =  -9.27770358316593E-08  9.34319809772528E+00
 cg2d: Sum(rhs),rhsMax =  -9.27373591252945E-08  9.34721542637213E+00
 cg2d: Sum(rhs),rhsMax =  -9.26982295368362E-08  9.35117321728378E+00
 cg2d: Sum(rhs),rhsMax =  -9.26594978523099E-08  9.35507820898651E+00
 cg2d: Sum(rhs),rhsMax =  -9.26212777585533E-08  9.35893728101038E+00
 cg2d: Sum(rhs),rhsMax =  -9.25836900478316E-08  9.36275724876052E+00
 cg2d: Sum(rhs),rhsMax =  -9.25467347201447E-08  9.36654466497940E+00
 cg2d: Sum(rhs),rhsMax =  -9.25093388559617E-08  9.37030563739009E+00
 cg2d: Sum(rhs),rhsMax =  -9.24723693174201E-08  9.37404566529748E+00
 cg2d: Sum(rhs),rhsMax =  -9.24358261045199E-08  9.37776950669782E+00
 cg2d: Sum(rhs),rhsMax =  -9.23998015878169E-08  9.38148107939576E+00
 cg2d: Sum(rhs),rhsMax =  -9.23633649563271E-08  9.38518340080342E+00
 cg2d: Sum(rhs),rhsMax =  -9.23271628039402E-08  9.38887856431341E+00
 cg2d: Sum(rhs),rhsMax =  -9.22907545941598E-08  9.39256775253961E+00
 cg2d: Sum(rhs),rhsMax =  -9.22549361348501E-08  9.39625127829926E+00
 cg2d: Sum(rhs),rhsMax =  -9.22186487173349E-08  9.39992865313115E+00
 cg2d: Sum(rhs),rhsMax =  -9.21831713185384E-08  9.40359867110262E+00
 cg2d: Sum(rhs),rhsMax =  -9.21473457538013E-08  9.40725949891390E+00
 cg2d: Sum(rhs),rhsMax =  -9.21119038821416E-08  9.41090875978471E+00
 cg2d: Sum(rhs),rhsMax =  -9.20763412182168E-08  9.41454361858659E+00
 cg2d: Sum(rhs),rhsMax =  -9.20410343496769E-08  9.41816086827301E+00
 cg2d: Sum(rhs),rhsMax =  -9.20060685416502E-08  9.42175701532902E+00
 cg2d: Sum(rhs),rhsMax =  -9.19711879987517E-08  9.42532836100955E+00
 EXTERNAL_FIELDS_LOAD, it=   3600150 : Reading new data, i0,i1=    3    4 (prev=    2    3 )
 DIC_FIELDS_LOAD, it=   3600150 : Reading new data, i0,i1=    3    4 (prev=    2    3 )
 cg2d: Sum(rhs),rhsMax =  -9.19367622032041E-08  9.42887108055882E+00
 cg2d: Sum(rhs),rhsMax =  -9.19030327395376E-08  9.43235832256638E+00
 cg2d: Sum(rhs),rhsMax =  -9.18696727580937E-08  9.43577294710938E+00
 cg2d: Sum(rhs),rhsMax =  -9.18375349101552E-08  9.43909901719340E+00
 cg2d: Sum(rhs),rhsMax =  -9.18056457521743E-08  9.44232226351574E+00
 cg2d: Sum(rhs),rhsMax =  -9.17754618967592E-08  9.44543045713848E+00
 cg2d: Sum(rhs),rhsMax =  -9.17468696570722E-08  9.44841368652191E+00
 cg2d: Sum(rhs),rhsMax =  -9.17188671678559E-08  9.45126453300903E+00
 cg2d: Sum(rhs),rhsMax =  -9.16929749905648E-08  9.45397814472091E+00
 cg2d: Sum(rhs),rhsMax =  -9.16680278351123E-08  9.45655223330268E+00
 cg2d: Sum(rhs),rhsMax =  -9.16445941356869E-08  9.45898700078271E+00
 cg2d: Sum(rhs),rhsMax =  -9.16223754643397E-08  9.46128500172268E+00
 cg2d: Sum(rhs),rhsMax =  -9.16011231311131E-08  9.46345095767279E+00
 cg2d: Sum(rhs),rhsMax =  -9.15811568802383E-08  9.46549153513779E+00
 cg2d: Sum(rhs),rhsMax =  -9.15625619768434E-08  9.46741508859273E+00
 cg2d: Sum(rhs),rhsMax =  -9.15451252581079E-08  9.46923137659912E+00
 cg2d: Sum(rhs),rhsMax =  -9.15285980340741E-08  9.47095124324780E+00
 cg2d: Sum(rhs),rhsMax =  -9.15126108225195E-08  9.47258633929544E+00
 cg2d: Sum(rhs),rhsMax =  -9.14974762622478E-08  9.47414881667898E+00
 cg2d: Sum(rhs),rhsMax =  -9.14831588261222E-08  9.47565102854520E+00
 cg2d: Sum(rhs),rhsMax =  -9.14691185016636E-08  9.47710524161440E+00
 cg2d: Sum(rhs),rhsMax =  -9.14552913400257E-08  9.47852337330871E+00
 cg2d: Sum(rhs),rhsMax =  -9.14417910280463E-08  9.47991675839448E+00
 cg2d: Sum(rhs),rhsMax =  -9.14288023068366E-08  9.48129594936036E+00
 cg2d: Sum(rhs),rhsMax =  -9.14153162057119E-08  9.48267055268677E+00
 cg2d: Sum(rhs),rhsMax =  -9.14016951014673E-08  9.48404910672501E+00
 cg2d: Sum(rhs),rhsMax =  -9.13883866360266E-08  9.48543898881096E+00
 cg2d: Sum(rhs),rhsMax =  -9.13749147457565E-08  9.48684634838855E+00
 cg2d: Sum(rhs),rhsMax =  -9.13611231112554E-08  9.48827608016959E+00
 cg2d: Sum(rhs),rhsMax =  -9.13465854068818E-08  9.48973182637241E+00
 cg2d: Sum(rhs),rhsMax =  -9.13324456064402E-08  9.49121598932757E+00
 cg2d: Sum(rhs),rhsMax =  -9.13176805283911E-08  9.49272976482376E+00
 cg2d: Sum(rhs),rhsMax =  -9.13029793991882E-08  9.49427318407705E+00
 cg2d: Sum(rhs),rhsMax =  -9.12876600978052E-08  9.49584517202971E+00
 cg2d: Sum(rhs),rhsMax =  -9.12722768475760E-08  9.49744362566448E+00
 cg2d: Sum(rhs),rhsMax =  -9.12563962174318E-08  9.49906550905340E+00
 cg2d: Sum(rhs),rhsMax =  -9.12406292741252E-08  9.50070696299551E+00
 cg2d: Sum(rhs),rhsMax =  -9.12245567974423E-08  9.50236342680402E+00
 cg2d: Sum(rhs),rhsMax =  -9.12086122184519E-08  9.50402976802920E+00
 cg2d: Sum(rhs),rhsMax =  -9.11920636781360E-08  9.50570042893596E+00
 cg2d: Sum(rhs),rhsMax =  -9.11760835720088E-08  9.50736956748404E+00
 cg2d: Sum(rhs),rhsMax =  -9.11599897790438E-08  9.50903122489705E+00
 cg2d: Sum(rhs),rhsMax =  -9.11439812512072E-08  9.51067944299842E+00
 cg2d: Sum(rhs),rhsMax =  -9.11286619498242E-08  9.51230836255520E+00
 cg2d: Sum(rhs),rhsMax =  -9.11128452685261E-08  9.51391232343393E+00
 cg2d: Sum(rhs),rhsMax =  -9.10978172896648E-08  9.51548598638282E+00
 cg2d: Sum(rhs),rhsMax =  -9.10825903588375E-08  9.51702443978652E+00
 cg2d: Sum(rhs),rhsMax =  -9.10679744947629E-08  9.51852327194360E+00
 cg2d: Sum(rhs),rhsMax =  -9.10538062726118E-08  9.51997861079381E+00
 cg2d: Sum(rhs),rhsMax =  -9.10403272769145E-08  9.52138713289450E+00
 cg2d: Sum(rhs),rhsMax =  -9.10271680254482E-08  9.52274605554116E+00
 cg2d: Sum(rhs),rhsMax =  -9.10143498344951E-08  9.52405313717331E+00
 cg2d: Sum(rhs),rhsMax =  -9.10022919242692E-08  9.52530666028232E+00
 cg2d: Sum(rhs),rhsMax =  -9.09905324419924E-08  9.52650541109617E+00
 cg2d: Sum(rhs),rhsMax =  -9.09794692915966E-08  9.52764864727963E+00
 cg2d: Sum(rhs),rhsMax =  -9.09689816808168E-08  9.52873605079492E+00
 cg2d: Sum(rhs),rhsMax =  -9.09588422359775E-08  9.52976767849440E+00
 cg2d: Sum(rhs),rhsMax =  -9.09493280687457E-08  9.53074391639987E+00
 cg2d: Sum(rhs),rhsMax =  -9.09404391791213E-08  9.53166530103624E+00
 cg2d: Sum(rhs),rhsMax =  -9.09316284491979E-08  9.53253252588939E+00
 EXTERNAL_FIELDS_LOAD, it=   3600210 : Reading new data, i0,i1=    4    5 (prev=    3    4 )
 DIC_FIELDS_LOAD, it=   3600210 : Reading new data, i0,i1=    4    5 (prev=    3    4 )
 cg2d: Sum(rhs),rhsMax =  -9.09236845814121E-08  9.53334634295211E+00
 cg2d: Sum(rhs),rhsMax =  -9.09162238826866E-08  9.53412016630968E+00
 cg2d: Sum(rhs),rhsMax =  -9.09088555545168E-08  9.53486144691540E+00
 cg2d: Sum(rhs),rhsMax =  -9.09020556605356E-08  9.53557668814411E+00
 cg2d: Sum(rhs),rhsMax =  -9.08950781308704E-08  9.53626990934916E+00
 cg2d: Sum(rhs),rhsMax =  -9.08885269268467E-08  9.53694479201801E+00
 cg2d: Sum(rhs),rhsMax =  -9.08819686173956E-08  9.53760402798875E+00
 cg2d: Sum(rhs),rhsMax =  -9.08758792661502E-08  9.53824943192211E+00
 cg2d: Sum(rhs),rhsMax =  -9.08692001644340E-08  9.53888215688552E+00
 cg2d: Sum(rhs),rhsMax =  -9.08633310814366E-08  9.53950304357000E+00
 cg2d: Sum(rhs),rhsMax =  -9.08575117364308E-08  9.54011304176576E+00
 cg2d: Sum(rhs),rhsMax =  -9.08516142317239E-08  9.54071301635899E+00
 cg2d: Sum(rhs),rhsMax =  -9.08458943627011E-08  9.54130322912294E+00
 cg2d: Sum(rhs),rhsMax =  -9.08400252797037E-08  9.54188272003942E+00
 cg2d: Sum(rhs),rhsMax =  -9.08349306882883E-08  9.54244934290944E+00
 cg2d: Sum(rhs),rhsMax =  -9.08295305634965E-08  9.54299999628384E+00
 cg2d: Sum(rhs),rhsMax =  -9.08241872821236E-08  9.54353092308816E+00
 cg2d: Sum(rhs),rhsMax =  -9.08189861092978E-08  9.54403796863502E+00
 cg2d: Sum(rhs),rhsMax =  -9.08142894218145E-08  9.54451678452915E+00
 cg2d: Sum(rhs),rhsMax =  -9.08097916862971E-08  9.54496303374895E+00
 cg2d: Sum(rhs),rhsMax =  -9.08056705384297E-08  9.54537256688658E+00
 cg2d: Sum(rhs),rhsMax =  -9.08016417611179E-08  9.54574155534994E+00
 cg2d: Sum(rhs),rhsMax =  -9.07979256226099E-08  9.54606657177462E+00
 cg2d: Sum(rhs),rhsMax =  -9.07952681927782E-08  9.54634467959792E+00
 cg2d: Sum(rhs),rhsMax =  -9.07924189164078E-08  9.54657345840157E+00
 cg2d: Sum(rhs),rhsMax =  -9.07902162339269E-08  9.54675102924543E+00
 cg2d: Sum(rhs),rhsMax =  -9.07886743561903E-08  9.54687605379506E+00
 cg2d: Sum(rhs),rhsMax =  -9.07877648614885E-08  9.54694771403842E+00
 cg2d: Sum(rhs),rhsMax =  -9.07869193156330E-08  9.54696566951997E+00
 cg2d: Sum(rhs),rhsMax =  -9.07865995714019E-08  9.54692999068711E+00
 cg2d: Sum(rhs),rhsMax =  -9.07872106381546E-08  9.54684108541375E+00
 cg2d: Sum(rhs),rhsMax =  -9.07884682987969E-08  9.54669963264824E+00
 cg2d: Sum(rhs),rhsMax =  -9.07898467517043E-08  9.54650651972953E+00
 cg2d: Sum(rhs),rhsMax =  -9.07915449488428E-08  9.54626274758502E+00
 cg2d: Sum(rhs),rhsMax =  -9.07941455352557E-08  9.54596935750525E+00
 cg2d: Sum(rhs),rhsMax =  -9.07970800767544E-08  9.54562738075971E+00
 cg2d: Sum(rhs),rhsMax =  -9.08000501453898E-08  9.54523778248193E+00
 cg2d: Sum(rhs),rhsMax =  -9.08038089164620E-08  9.54480140259877E+00
 cg2d: Sum(rhs),rhsMax =  -9.08078732209106E-08  9.54431888382345E+00
 cg2d: Sum(rhs),rhsMax =  -9.08128896526250E-08  9.54379063440704E+00
 cg2d: Sum(rhs),rhsMax =  -9.08179274006216E-08  9.54321682610369E+00
 cg2d: Sum(rhs),rhsMax =  -9.08231072571652E-08  9.54259741627488E+00
 cg2d: Sum(rhs),rhsMax =  -9.08294239820862E-08  9.54193218180504E+00
 cg2d: Sum(rhs),rhsMax =  -9.08357407070071E-08  9.54122075566689E+00
 cg2d: Sum(rhs),rhsMax =  -9.08426116552619E-08  9.54046266149910E+00
 cg2d: Sum(rhs),rhsMax =  -9.08497668206110E-08  9.53965734943055E+00
 cg2d: Sum(rhs),rhsMax =  -9.08576467395505E-08  9.53880424419014E+00
 cg2d: Sum(rhs),rhsMax =  -9.08659032461401E-08  9.53790282192021E+00
 cg2d: Sum(rhs),rhsMax =  -9.08746713434994E-08  9.53695268180845E+00
 cg2d: Sum(rhs),rhsMax =  -9.08840078750472E-08  9.53595362230667E+00
 cg2d: Sum(rhs),rhsMax =  -9.08936215182621E-08  9.53490571447803E+00
 cg2d: Sum(rhs),rhsMax =  -9.09042654484438E-08  9.53380930168364E+00
 cg2d: Sum(rhs),rhsMax =  -9.09145470018302E-08  9.53266493640869E+00
 cg2d: Sum(rhs),rhsMax =  -9.09259227910297E-08  9.53147332889492E+00
 cg2d: Sum(rhs),rhsMax =  -9.09384141323244E-08  9.53023537646442E+00
 cg2d: Sum(rhs),rhsMax =  -9.09505217805417E-08  9.52895220993865E+00
 cg2d: Sum(rhs),rhsMax =  -9.09629278567081E-08  9.52762520262973E+00
 cg2d: Sum(rhs),rhsMax =  -9.09757815747980E-08  9.52625594300855E+00
 cg2d: Sum(rhs),rhsMax =  -9.09892747813501E-08  9.52484621149773E+00
 cg2d: Sum(rhs),rhsMax =  -9.10029882561503E-08  9.52339794221070E+00
 EXTERNAL_FIELDS_LOAD, it=   3600270 : Reading new data, i0,i1=    5    6 (prev=    4    5 )
 DIC_FIELDS_LOAD, it=   3600270 : Reading new data, i0,i1=    5    6 (prev=    4    5 )
 cg2d: Sum(rhs),rhsMax =  -9.10169930534721E-08  9.52191318167782E+00
 cg2d: Sum(rhs),rhsMax =  -9.10311257484864E-08  9.52041761022813E+00
 cg2d: Sum(rhs),rhsMax =  -9.10455213443129E-08  9.51892843351038E+00
 cg2d: Sum(rhs),rhsMax =  -9.10593485059508E-08  9.51746258399289E+00
 cg2d: Sum(rhs),rhsMax =  -9.10729625047679E-08  9.51603636817957E+00
 cg2d: Sum(rhs),rhsMax =  -9.10860507019606E-08  9.51466517931999E+00
 cg2d: Sum(rhs),rhsMax =  -9.10986344138109E-08  9.51336322967766E+00
 cg2d: Sum(rhs),rhsMax =  -9.11102233658312E-08  9.51214329321166E+00
 cg2d: Sum(rhs),rhsMax =  -9.11212367782355E-08  9.51101645114812E+00
 cg2d: Sum(rhs),rhsMax =  -9.11308219997409E-08  9.50999185515969E+00
 cg2d: Sum(rhs),rhsMax =  -9.11397606273567E-08  9.50907652378690E+00
 cg2d: Sum(rhs),rhsMax =  -9.11473847509114E-08  9.50827517814543E+00
 cg2d: Sum(rhs),rhsMax =  -9.11540354309182E-08  9.50759014752173E+00
 cg2d: Sum(rhs),rhsMax =  -9.11595421371203E-08  9.50702134377118E+00
 cg2d: Sum(rhs),rhsMax =  -9.11640682943471E-08  9.50656629011210E+00
 cg2d: Sum(rhs),rhsMax =  -9.11673012637948E-08  9.50622019182364E+00
 cg2d: Sum(rhs),rhsMax =  -9.11696744765322E-08  9.50597606771963E+00
 cg2d: Sum(rhs),rhsMax =  -9.11708539774736E-08  9.50582494250500E+00
 cg2d: Sum(rhs),rhsMax =  -9.11716497853376E-08  9.50575608648473E+00
 cg2d: Sum(rhs),rhsMax =  -9.11714224116622E-08  9.50575729587021E+00
 cg2d: Sum(rhs),rhsMax =  -9.11708468720462E-08  9.50581523373235E+00
 cg2d: Sum(rhs),rhsMax =  -9.11699018502077E-08  9.50591575069248E+00
 cg2d: Sum(rhs),rhsMax =  -9.11685589244371E-08  9.50604420974297E+00
 cg2d: Sum(rhs),rhsMax =  -9.11669744141363E-08  9.50618583284504E+00
 cg2d: Sum(rhs),rhsMax =  -9.11656883317846E-08  9.50632606101357E+00
 cg2d: Sum(rhs),rhsMax =  -9.11643525114414E-08  9.50645090757042E+00
 cg2d: Sum(rhs),rhsMax =  -9.11635567035773E-08  9.50654729113363E+00
 cg2d: Sum(rhs),rhsMax =  -9.11632938027651E-08  9.50660334354173E+00
 cg2d: Sum(rhs),rhsMax =  -9.11633009081925E-08  9.50660868062301E+00
 cg2d: Sum(rhs),rhsMax =  -9.11639332912273E-08  9.50655462562515E+00
 cg2d: Sum(rhs),rhsMax =  -9.11649706836215E-08  9.50643436311089E+00
 cg2d: Sum(rhs),rhsMax =  -9.11672302095212E-08  9.50624304674150E+00
 cg2d: Sum(rhs),rhsMax =  -9.11696460548228E-08  9.50597781905916E+00
 cg2d: Sum(rhs),rhsMax =  -9.11727440211507E-08  9.50563777710892E+00
 cg2d: Sum(rhs),rhsMax =  -9.11770854372662E-08  9.50522393135291E+00
 cg2d: Sum(rhs),rhsMax =  -9.11816186999204E-08  9.50473911463816E+00
 cg2d: Sum(rhs),rhsMax =  -9.11870614572763E-08  9.50418773930678E+00
 cg2d: Sum(rhs),rhsMax =  -9.11928168534359E-08  9.50357558691374E+00
 cg2d: Sum(rhs),rhsMax =  -9.11992827923314E-08  9.50290964447458E+00
 cg2d: Sum(rhs),rhsMax =  -9.12065729608003E-08  9.50219791542795E+00
 cg2d: Sum(rhs),rhsMax =  -9.12139270781154E-08  9.50144918276843E+00
 cg2d: Sum(rhs),rhsMax =  -9.12212811954305E-08  9.50067274580360E+00
 cg2d: Sum(rhs),rhsMax =  -9.12293955934729E-08  9.49987815929010E+00
 cg2d: Sum(rhs),rhsMax =  -9.12369131356172E-08  9.49907498366882E+00
 cg2d: Sum(rhs),rhsMax =  -9.12447788437021E-08  9.49827255755378E+00
 cg2d: Sum(rhs),rhsMax =  -9.12528008711888E-08  9.49747978836020E+00
 cg2d: Sum(rhs),rhsMax =  -9.12602686753416E-08  9.49670496341604E+00
 cg2d: Sum(rhs),rhsMax =  -9.12679780640246E-08  9.49595558374171E+00
 cg2d: Sum(rhs),rhsMax =  -9.12747850634332E-08  9.49523821505845E+00
 cg2d: Sum(rhs),rhsMax =  -9.12811941589098E-08  9.49455836839740E+00
 cg2d: Sum(rhs),rhsMax =  -9.12878306280618E-08  9.49392042323925E+00
 cg2d: Sum(rhs),rhsMax =  -9.12937139219139E-08  9.49332754785973E+00
 cg2d: Sum(rhs),rhsMax =  -9.12992632606802E-08  9.49278165465699E+00
 cg2d: Sum(rhs),rhsMax =  -9.13035833605136E-08  9.49228339433203E+00
 cg2d: Sum(rhs),rhsMax =  -9.13086424247922E-08  9.49183218209292E+00
 cg2d: Sum(rhs),rhsMax =  -9.13127422563775E-08  9.49142625728328E+00
 cg2d: Sum(rhs),rhsMax =  -9.13163518134752E-08  9.49106276286301E+00
 cg2d: Sum(rhs),rhsMax =  -9.13194782015125E-08  9.49073783789306E+00
 cg2d: Sum(rhs),rhsMax =  -9.13225406407037E-08  9.49044672400271E+00
 cg2d: Sum(rhs),rhsMax =  -9.13253046519458E-08  9.49018390323782E+00
 EXTERNAL_FIELDS_LOAD, it=   3600330 : Reading new data, i0,i1=    6    7 (prev=    5    6 )
 DIC_FIELDS_LOAD, it=   3600330 : Reading new data, i0,i1=    6    7 (prev=    5    6 )
 cg2d: Sum(rhs),rhsMax =  -9.13276210212643E-08  9.48994325700856E+00
 cg2d: Sum(rhs),rhsMax =  -9.13303352945150E-08  9.48970801758053E+00
 cg2d: Sum(rhs),rhsMax =  -9.13328221940901E-08  9.48946471682098E+00
 cg2d: Sum(rhs),rhsMax =  -9.13353943587936E-08  9.48919980375378E+00
 cg2d: Sum(rhs),rhsMax =  -9.13383644274290E-08  9.48889996251626E+00
 cg2d: Sum(rhs),rhsMax =  -9.13418460868343E-08  9.48855235316500E+00
 cg2d: Sum(rhs),rhsMax =  -9.13461093432488E-08  9.48814487205053E+00
 cg2d: Sum(rhs),rhsMax =  -9.13508344524416E-08  9.48766639266868E+00
 cg2d: Sum(rhs),rhsMax =  -9.13563624749258E-08  9.48710698236420E+00
 cg2d: Sum(rhs),rhsMax =  -9.13624518261713E-08  9.48645808347463E+00
 cg2d: Sum(rhs),rhsMax =  -9.13698130489138E-08  9.48571268422533E+00
 cg2d: Sum(rhs),rhsMax =  -9.13783111400335E-08  9.48486545850383E+00
 cg2d: Sum(rhs),rhsMax =  -9.13876760932908E-08  9.48391285858374E+00
 cg2d: Sum(rhs),rhsMax =  -9.13977800109933E-08  9.48285315351105E+00
 cg2d: Sum(rhs),rhsMax =  -9.14093334358768E-08  9.48168641391458E+00
 cg2d: Sum(rhs),rhsMax =  -9.14215760872139E-08  9.48041445516485E+00
 cg2d: Sum(rhs),rhsMax =  -9.14348703418000E-08  9.47904073781749E+00
 cg2d: Sum(rhs),rhsMax =  -9.14490314585237E-08  9.47757022510765E+00
 cg2d: Sum(rhs),rhsMax =  -9.14641802296501E-08  9.47600920384239E+00
 cg2d: Sum(rhs),rhsMax =  -9.14802384954783E-08  9.47436507523804E+00
 cg2d: Sum(rhs),rhsMax =  -9.14970428311790E-08  9.47264612546539E+00
 cg2d: Sum(rhs),rhsMax =  -9.15143658630768E-08  9.47086128598380E+00
 cg2d: Sum(rhs),rhsMax =  -9.15317244221114E-08  9.46901988541289E+00
 cg2d: Sum(rhs),rhsMax =  -9.15503548526431E-08  9.46713139755286E+00
 cg2d: Sum(rhs),rhsMax =  -9.15688005420634E-08  9.46520519129246E+00
 cg2d: Sum(rhs),rhsMax =  -9.15879354579374E-08  9.46325027783096E+00
 cg2d: Sum(rhs),rhsMax =  -9.16070561629567E-08  9.46127510172983E+00
 cg2d: Sum(rhs),rhsMax =  -9.16269016215665E-08  9.45928736176468E+00
 cg2d: Sum(rhs),rhsMax =  -9.16458375854745E-08  9.45729384446051E+00
 cg2d: Sum(rhs),rhsMax =  -9.16652354021608E-08  9.45530032221759E+00
 cg2d: Sum(rhs),rhsMax =  -9.16847469056847E-08  9.45331147339530E+00
 cg2d: Sum(rhs),rhsMax =  -9.17041660386531E-08  9.45133082537812E+00
 cg2d: Sum(rhs),rhsMax =  -9.17234714847837E-08  9.44936073119909E+00
 cg2d: Sum(rhs),rhsMax =  -9.17423008672813E-08  9.44740238220463E+00
 cg2d: Sum(rhs),rhsMax =  -9.17614002560185E-08  9.44545585645758E+00
 cg2d: Sum(rhs),rhsMax =  -9.17801870059520E-08  9.44352020252140E+00
 cg2d: Sum(rhs),rhsMax =  -9.17989737558855E-08  9.44159355733174E+00
 cg2d: Sum(rhs),rhsMax =  -9.18179097197935E-08  9.43967327626014E+00
 cg2d: Sum(rhs),rhsMax =  -9.18367177860091E-08  9.43775607395104E+00
 cg2d: Sum(rhs),rhsMax =  -9.18552629514124E-08  9.43583817490269E+00
 cg2d: Sum(rhs),rhsMax =  -9.18742912858761E-08  9.43391546318717E+00
 cg2d: Sum(rhs),rhsMax =  -9.18933977800407E-08  9.43198362529795E+00
 cg2d: Sum(rhs),rhsMax =  -9.19123053222393E-08  9.43003828806143E+00
 cg2d: Sum(rhs),rhsMax =  -9.19319091963189E-08  9.42807514245689E+00
 cg2d: Sum(rhs),rhsMax =  -9.19516196518089E-08  9.42609005034801E+00
 cg2d: Sum(rhs),rhsMax =  -9.19711453661876E-08  9.42407914155286E+00
 cg2d: Sum(rhs),rhsMax =  -9.19916374186869E-08  9.42203890101561E+00
 cg2d: Sum(rhs),rhsMax =  -9.20122005254598E-08  9.41996625280574E+00
 cg2d: Sum(rhs),rhsMax =  -9.20328773190704E-08  9.41785862954787E+00
 cg2d: Sum(rhs),rhsMax =  -9.20541722848611E-08  9.41571402403211E+00
 cg2d: Sum(rhs),rhsMax =  -9.20761920042423E-08  9.41353104362712E+00
 cg2d: Sum(rhs),rhsMax =  -9.20975224971698E-08  9.41130897700722E+00
 cg2d: Sum(rhs),rhsMax =  -9.21202243375774E-08  9.40904782014454E+00
 cg2d: Sum(rhs),rhsMax =  -9.21427556477283E-08  9.40674826682519E+00
 cg2d: Sum(rhs),rhsMax =  -9.21658624974953E-08  9.40441167656376E+00
 cg2d: Sum(rhs),rhsMax =  -9.21897651551262E-08  9.40204003109270E+00
 cg2d: Sum(rhs),rhsMax =  -9.22136393910478E-08  9.39963588692061E+00
 cg2d: Sum(rhs),rhsMax =  -9.22377765277815E-08  9.39720232327049E+00
 cg2d: Sum(rhs),rhsMax =  -9.22617147125493E-08  9.39474287623570E+00
 cg2d: Sum(rhs),rhsMax =  -9.22866476571471E-08  9.39226147078604E+00
 EXTERNAL_FIELDS_LOAD, it=   3600390 : Reading new data, i0,i1=    7    8 (prev=    6    7 )
 DIC_FIELDS_LOAD, it=   3600390 : Reading new data, i0,i1=    7    8 (prev=    6    7 )
 cg2d: Sum(rhs),rhsMax =  -9.23120353490958E-08  9.38976233427929E+00
 cg2d: Sum(rhs),rhsMax =  -9.23369185557021E-08  9.38724381347799E+00
 cg2d: Sum(rhs),rhsMax =  -9.23620930848301E-08  9.38470550458213E+00
 cg2d: Sum(rhs),rhsMax =  -9.23878431535741E-08  9.38214640732935E+00
 cg2d: Sum(rhs),rhsMax =  -9.24133303215058E-08  9.37956498127073E+00
 cg2d: Sum(rhs),rhsMax =  -9.24395564538827E-08  9.37695924403383E+00
 cg2d: Sum(rhs),rhsMax =  -9.24659673273709E-08  9.37432689628576E+00
 cg2d: Sum(rhs),rhsMax =  -9.24926268908166E-08  9.37166545130188E+00
 cg2d: Sum(rhs),rhsMax =  -9.25199330481519E-08  9.36897236493602E+00
 cg2d: Sum(rhs),rhsMax =  -9.25472107837777E-08  9.36624514198210E+00
 cg2d: Sum(rhs),rhsMax =  -9.25749148450450E-08  9.36348144222541E+00
 cg2d: Sum(rhs),rhsMax =  -9.26027894365689E-08  9.36067916467522E+00
 cg2d: Sum(rhs),rhsMax =  -9.26316801042049E-08  9.35783651518778E+00
 cg2d: Sum(rhs),rhsMax =  -9.26604357687211E-08  9.35495205473915E+00
 cg2d: Sum(rhs),rhsMax =  -9.26899872411013E-08  9.35202472862356E+00
 cg2d: Sum(rhs),rhsMax =  -9.27198087197212E-08  9.34905386050751E+00
 cg2d: Sum(rhs),rhsMax =  -9.27502270542391E-08  9.34603912446753E+00
 cg2d: Sum(rhs),rhsMax =  -9.27809580275607E-08  9.34298052032945E+00
 cg2d: Sum(rhs),rhsMax =  -9.28122148025068E-08  9.33987837125357E+00
 cg2d: Sum(rhs),rhsMax =  -9.28438836922396E-08  9.33673332003228E+00
 cg2d: Sum(rhs),rhsMax =  -9.28756591633828E-08  9.33354631509102E+00
 cg2d: Sum(rhs),rhsMax =  -9.29085999246126E-08  9.33031856217985E+00
 cg2d: Sum(rhs),rhsMax =  -9.29414056827227E-08  9.32705144157814E+00
 cg2d: Sum(rhs),rhsMax =  -9.29742824951063E-08  9.32374640924821E+00
 cg2d: Sum(rhs),rhsMax =  -9.30079835370634E-08  9.32040491207867E+00
 cg2d: Sum(rhs),rhsMax =  -9.30417982658582E-08  9.31702830536998E+00
 cg2d: Sum(rhs),rhsMax =  -9.30764798567907E-08  9.31361778906816E+00
 cg2d: Sum(rhs),rhsMax =  -9.31104011669959E-08  9.31017435680010E+00
 cg2d: Sum(rhs),rhsMax =  -9.31454593455783E-08  9.30669874783390E+00
 cg2d: Sum(rhs),rhsMax =  -9.31809367443748E-08  9.30319140183628E+00
 cg2d: Sum(rhs),rhsMax =  -9.32159238686836E-08  9.29965242032067E+00
 cg2d: Sum(rhs),rhsMax =  -9.32518702256857E-08  9.29608155387300E+00
 cg2d: Sum(rhs),rhsMax =  -9.32883352788849E-08  9.29247816276956E+00
 cg2d: Sum(rhs),rhsMax =  -9.33245232204172E-08  9.28884120452690E+00
 cg2d: Sum(rhs),rhsMax =  -9.33613577558390E-08  9.28516924951164E+00
 cg2d: Sum(rhs),rhsMax =  -9.33982562401070E-08  9.28146051649491E+00
 cg2d: Sum(rhs),rhsMax =  -9.34364479121541E-08  9.27771291851975E+00
 cg2d: Sum(rhs),rhsMax =  -9.34740143065937E-08  9.27392411497484E+00
 cg2d: Sum(rhs),rhsMax =  -9.35126251988549E-08  9.27009157616147E+00
 cg2d: Sum(rhs),rhsMax =  -9.35518329470142E-08  9.26621266064052E+00
 cg2d: Sum(rhs),rhsMax =  -9.35912964905583E-08  9.26228469753356E+00
 cg2d: Sum(rhs),rhsMax =  -9.36311082000429E-08  9.25830502540661E+00
 cg2d: Sum(rhs),rhsMax =  -9.36718080879473E-08  9.25427104022615E+00
 cg2d: Sum(rhs),rhsMax =  -9.37130835154676E-08  9.25018025806528E+00
 cg2d: Sum(rhs),rhsMax =  -9.37547639523473E-08  9.24603037476154E+00
 cg2d: Sum(rhs),rhsMax =  -9.37974888870485E-08  9.24181932462259E+00
 cg2d: Sum(rhs),rhsMax =  -9.38402919814507E-08  9.23754533703139E+00
 cg2d: Sum(rhs),rhsMax =  -9.38843172093584E-08  9.23320698439808E+00
 cg2d: Sum(rhs),rhsMax =  -9.39290814017113E-08  9.22880321317793E+00
 cg2d: Sum(rhs),rhsMax =  -9.39739734917566E-08  9.22433335164241E+00
 cg2d: Sum(rhs),rhsMax =  -9.40200521881707E-08  9.21979710173837E+00
 cg2d: Sum(rhs),rhsMax =  -9.40667135296280E-08  9.21519452384442E+00
 cg2d: Sum(rhs),rhsMax =  -9.41140712029664E-08  9.21052602027441E+00
 cg2d: Sum(rhs),rhsMax =  -9.41621181027585E-08  9.20579231856880E+00
 cg2d: Sum(rhs),rhsMax =  -9.42108115964402E-08  9.20099445172383E+00
 cg2d: Sum(rhs),rhsMax =  -9.42603506359774E-08  9.19613373409314E+00
 cg2d: Sum(rhs),rhsMax =  -9.43106570616692E-08  9.19121172891709E+00
 cg2d: Sum(rhs),rhsMax =  -9.43619582471911E-08  9.18623021276131E+00
 cg2d: Sum(rhs),rhsMax =  -9.44129254776271E-08  9.18119115032627E+00
 cg2d: Sum(rhs),rhsMax =  -9.44648874678933E-08  9.17609666859133E+00
 EXTERNAL_FIELDS_LOAD, it=   3600450 : Reading new data, i0,i1=    8    9 (prev=    7    8 )
 DIC_FIELDS_LOAD, it=   3600450 : Reading new data, i0,i1=    8    9 (prev=    7    8 )
 cg2d: Sum(rhs),rhsMax =  -9.45180929079470E-08  9.17094900539886E+00
 cg2d: Sum(rhs),rhsMax =  -9.45713196642828E-08  9.16576037761048E+00
 cg2d: Sum(rhs),rhsMax =  -9.46249869571147E-08  9.16053907873528E+00
 cg2d: Sum(rhs),rhsMax =  -9.46787679367844E-08  9.15529303788953E+00
 cg2d: Sum(rhs),rhsMax =  -9.47327123412833E-08  9.15002961005962E+00
 cg2d: Sum(rhs),rhsMax =  -9.47873814993727E-08  9.14475542293395E+00
 cg2d: Sum(rhs),rhsMax =  -9.48415888046839E-08  9.13947626776025E+00
 cg2d: Sum(rhs),rhsMax =  -9.48963148061921E-08  9.13419703804716E+00
 cg2d: Sum(rhs),rhsMax =  -9.49505718494947E-08  9.12892171232682E+00
 cg2d: Sum(rhs),rhsMax =  -9.50055820680973E-08  9.12365335338700E+00
 cg2d: Sum(rhs),rhsMax =  -9.50602441207593E-08  9.11839411243203E+00
 cg2d: Sum(rhs),rhsMax =  -9.51149274897034E-08  9.11314523538299E+00
 cg2d: Sum(rhs),rhsMax =  -9.51689713701853E-08  9.10790707134369E+00
 cg2d: Sum(rhs),rhsMax =  -9.52241663298992E-08  9.10267908920085E+00
 cg2d: Sum(rhs),rhsMax =  -9.52785583763216E-08  9.09745990818067E+00
 cg2d: Sum(rhs),rhsMax =  -9.53332346398383E-08  9.09224734512777E+00
 cg2d: Sum(rhs),rhsMax =  -9.53879322196372E-08  9.08703847736888E+00
 cg2d: Sum(rhs),rhsMax =  -9.54423811094784E-08  9.08182972075513E+00
 cg2d: Sum(rhs),rhsMax =  -9.54974623823546E-08  9.07661692347198E+00
 cg2d: Sum(rhs),rhsMax =  -9.55527141854873E-08  9.07139547821490E+00
 cg2d: Sum(rhs),rhsMax =  -9.56078878289190E-08  9.06616045270155E+00
 cg2d: Sum(rhs),rhsMax =  -9.56632462134621E-08  9.06090673305150E+00
 cg2d: Sum(rhs),rhsMax =  -9.57190593453561E-08  9.05562917574046E+00
 cg2d: Sum(rhs),rhsMax =  -9.57753982788745E-08  9.05032276301453E+00
 cg2d: Sum(rhs),rhsMax =  -9.58323127520089E-08  9.04498274779792E+00
 cg2d: Sum(rhs),rhsMax =  -9.58890566948867E-08  9.03960479010611E+00
 cg2d: Sum(rhs),rhsMax =  -9.59469090844323E-08  9.03418508103277E+00
 cg2d: Sum(rhs),rhsMax =  -9.60046975251316E-08  9.02872044807494E+00
 cg2d: Sum(rhs),rhsMax =  -9.60634949365158E-08  9.02320843719522E+00
 cg2d: Sum(rhs),rhsMax =  -9.61234505325592E-08  9.01764736350553E+00
 cg2d: Sum(rhs),rhsMax =  -9.61829158541150E-08  9.01203632711249E+00
 cg2d: Sum(rhs),rhsMax =  -9.62436175200310E-08  9.00637519234014E+00
 cg2d: Sum(rhs),rhsMax =  -9.63047241953063E-08  9.00066454100738E+00
 cg2d: Sum(rhs),rhsMax =  -9.63663566722062E-08  8.99490560644289E+00
 cg2d: Sum(rhs),rhsMax =  -9.64286215321408E-08  8.98910019830229E+00
 cg2d: Sum(rhs),rhsMax =  -9.64914832479735E-08  8.98325060608421E+00
 cg2d: Sum(rhs),rhsMax =  -9.65549631359863E-08  8.97735949860674E+00
 cg2d: Sum(rhs),rhsMax =  -9.66191180395981E-08  8.97142982445055E+00
 cg2d: Sum(rhs),rhsMax =  -9.66832942594920E-08  8.96546471599943E+00
 cg2d: Sum(rhs),rhsMax =  -9.67482520763951E-08  8.95946740124540E+00
 cg2d: Sum(rhs),rhsMax =  -9.68132098932983E-08  8.95344112713886E+00
 cg2d: Sum(rhs),rhsMax =  -9.68790274669118E-08  8.94738909112794E+00
 cg2d: Sum(rhs),rhsMax =  -9.69447810916790E-08  8.94131438207753E+00
 cg2d: Sum(rhs),rhsMax =  -9.70111884157632E-08  8.93521991327319E+00
 cg2d: Sum(rhs),rhsMax =  -9.70773115227530E-08  8.92910833888471E+00
 cg2d: Sum(rhs),rhsMax =  -9.71445075492738E-08  8.92298199747039E+00
 cg2d: Sum(rhs),rhsMax =  -9.72113554098541E-08  8.91684290726808E+00
 cg2d: Sum(rhs),rhsMax =  -9.72787574937684E-08  8.91069264633776E+00
 cg2d: Sum(rhs),rhsMax =  -9.73459535202892E-08  8.90453228797114E+00
 cg2d: Sum(rhs),rhsMax =  -9.74135971887335E-08  8.89836249714105E+00
 cg2d: Sum(rhs),rhsMax =  -9.74817027099562E-08  8.89218368115518E+00
 cg2d: Sum(rhs),rhsMax =  -9.75496519117769E-08  8.88599608996445E+00
 cg2d: Sum(rhs),rhsMax =  -9.76179350686834E-08  8.87979980032782E+00
 cg2d: Sum(rhs),rhsMax =  -9.76860476953334E-08  8.87359466021019E+00
 cg2d: Sum(rhs),rhsMax =  -9.77549490244201E-08  8.86737992136571E+00
 cg2d: Sum(rhs),rhsMax =  -9.78237792992331E-08  8.86115449881272E+00
 cg2d: Sum(rhs),rhsMax =  -9.78925882577641E-08  8.85491714939279E+00
 cg2d: Sum(rhs),rhsMax =  -9.79620651264668E-08  8.84866650814923E+00
 cg2d: Sum(rhs),rhsMax =  -9.80318830556826E-08  8.84239908862083E+00
 cg2d: Sum(rhs),rhsMax =  -9.81016583523342E-08  8.83611205511795E+00
 EXTERNAL_FIELDS_LOAD, it=   3600510 : Reading new data, i0,i1=    9   10 (prev=    8    9 )
 DIC_FIELDS_LOAD, it=   3600510 : Reading new data, i0,i1=    9   10 (prev=    8    9 )
 cg2d: Sum(rhs),rhsMax =  -9.81721868242857E-08  8.82980306034887E+00
 cg2d: Sum(rhs),rhsMax =  -9.82427721396562E-08  8.82347164349139E+00
 cg2d: Sum(rhs),rhsMax =  -9.83135990395567E-08  8.81711735596894E+00
 cg2d: Sum(rhs),rhsMax =  -9.83851720093298E-08  8.81074020360017E+00
 cg2d: Sum(rhs),rhsMax =  -9.84564962891454E-08  8.80434063629974E+00
 cg2d: Sum(rhs),rhsMax =  -9.85286376931072E-08  8.79791959804717E+00
 cg2d: Sum(rhs),rhsMax =  -9.86011414738641E-08  8.79147850051498E+00
 cg2d: Sum(rhs),rhsMax =  -9.86734960406466E-08  8.78501923806664E+00
 cg2d: Sum(rhs),rhsMax =  -9.87464900958912E-08  8.77854412431977E+00
 cg2d: Sum(rhs),rhsMax =  -9.88197470519481E-08  8.77205585109022E+00
 cg2d: Sum(rhs),rhsMax =  -9.88934729662105E-08  8.76555740298602E+00
 cg2d: Sum(rhs),rhsMax =  -9.89669146633787E-08  8.75905198910442E+00
 cg2d: Sum(rhs),rhsMax =  -9.90407258427695E-08  8.75254295465281E+00
 cg2d: Sum(rhs),rhsMax =  -9.91145014950234E-08  8.74603368964057E+00
 cg2d: Sum(rhs),rhsMax =  -9.91886466295000E-08  8.73952755244439E+00
 cg2d: Sum(rhs),rhsMax =  -9.92623157003436E-08  8.73302782624689E+00
 cg2d: Sum(rhs),rhsMax =  -9.93363400425551E-08  8.72653766294564E+00
 cg2d: Sum(rhs),rhsMax =  -9.94104141227581E-08  8.72006002219781E+00
 cg2d: Sum(rhs),rhsMax =  -9.94844668866790E-08  8.71359759621992E+00
 cg2d: Sum(rhs),rhsMax =  -9.95583775420528E-08  8.70715278372291E+00
 cg2d: Sum(rhs),rhsMax =  -9.96322597757171E-08  8.70072771032166E+00
 cg2d: Sum(rhs),rhsMax =  -9.97059714791249E-08  8.69432422374462E+00
 cg2d: Sum(rhs),rhsMax =  -9.97792923840279E-08  8.68794392220557E+00
 cg2d: Sum(rhs),rhsMax =  -9.98527127649140E-08  8.68159287495532E+00
 cg2d: Sum(rhs),rhsMax =  -9.99256144496030E-08  8.67527594836007E+00
 cg2d: Sum(rhs),rhsMax =  -9.99983740257449E-08  8.66899648662334E+00
 cg2d: Sum(rhs),rhsMax =  -1.00070764119664E-07  8.66275674813775E+00
 cg2d: Sum(rhs),rhsMax =  -1.00142791836788E-07  8.65655808426570E+00
 cg2d: Sum(rhs),rhsMax =  -1.00214123222031E-07  8.65040095427649E+00
 cg2d: Sum(rhs),rhsMax =  -1.00285419080137E-07  8.64428511771589E+00
 cg2d: Sum(rhs),rhsMax =  -1.00356203347474E-07  8.63820779072895E+00
 cg2d: Sum(rhs),rhsMax =  -1.00426881033400E-07  8.63216610266613E+00
 cg2d: Sum(rhs),rhsMax =  -1.00497182131676E-07  8.62615664857018E+00
 cg2d: Sum(rhs),rhsMax =  -1.00566929006618E-07  8.62017549344574E+00
 cg2d: Sum(rhs),rhsMax =  -1.00636839306389E-07  8.61421824973427E+00
 cg2d: Sum(rhs),rhsMax =  -1.00706515127058E-07  8.60828014305759E+00
 cg2d: Sum(rhs),rhsMax =  -1.00776318845419E-07  8.60235619466164E+00
 cg2d: Sum(rhs),rhsMax =  -1.00845916506387E-07  8.59644141396147E+00
 cg2d: Sum(rhs),rhsMax =  -1.00915485745645E-07  8.59053104903554E+00
 cg2d: Sum(rhs),rhsMax =  -1.00985261042297E-07  8.58462072248315E+00
 cg2d: Sum(rhs),rhsMax =  -1.01055491086299E-07  8.57870663714626E+00
 cg2d: Sum(rhs),rhsMax =  -1.01125422702353E-07  8.57278566865890E+00
 cg2d: Sum(rhs),rhsMax =  -1.01195716695202E-07  8.56685532083521E+00
 cg2d: Sum(rhs),rhsMax =  -1.01266216745444E-07  8.56091374139585E+00
 cg2d: Sum(rhs),rhsMax =  -1.01337192859319E-07  8.55495975914983E+00
 cg2d: Sum(rhs),rhsMax =  -1.01408346608878E-07  8.54899275863313E+00
 cg2d: Sum(rhs),rhsMax =  -1.01479535885574E-07  8.54301265247851E+00
 cg2d: Sum(rhs),rhsMax =  -1.01551435705005E-07  8.53701978569626E+00
 cg2d: Sum(rhs),rhsMax =  -1.01622724457684E-07  8.53101490472480E+00
 cg2d: Sum(rhs),rhsMax =  -1.01695292187287E-07  8.52499919193590E+00
 cg2d: Sum(rhs),rhsMax =  -1.01767554383514E-07  8.51897431341724E+00
 cg2d: Sum(rhs),rhsMax =  -1.01840242905382E-07  8.51294235247767E+00
 cg2d: Sum(rhs),rhsMax =  -1.01912846162122E-07  8.50690569200869E+00
 cg2d: Sum(rhs),rhsMax =  -1.01985413891725E-07  8.50087005576702E+00
 cg2d: Sum(rhs),rhsMax =  -1.02058450579534E-07  8.49484015017416E+00
 cg2d: Sum(rhs),rhsMax =  -1.02131188839394E-07  8.48882063673028E+00
 cg2d: Sum(rhs),rhsMax =  -1.02203856044980E-07  8.48281607441673E+00
 cg2d: Sum(rhs),rhsMax =  -1.02276672464541E-07  8.47683086082370E+00
 cg2d: Sum(rhs),rhsMax =  -1.02349595465512E-07  8.47086915096995E+00
 cg2d: Sum(rhs),rhsMax =  -1.02421360281824E-07  8.46493476809303E+00
 EXTERNAL_FIELDS_LOAD, it=   3600570 : Reading new data, i0,i1=   10   11 (prev=    9   10 )
 DIC_FIELDS_LOAD, it=   3600570 : Reading new data, i0,i1=   10   11 (prev=    9   10 )
 cg2d: Sum(rhs),rhsMax =  -1.02493515896640E-07  8.45903109783263E+00
 cg2d: Sum(rhs),rhsMax =  -1.02564975179575E-07  8.45319648993583E+00
 cg2d: Sum(rhs),rhsMax =  -1.02634501786270E-07  8.44745634270964E+00
 cg2d: Sum(rhs),rhsMax =  -1.02703893389844E-07  8.44183524325516E+00
 cg2d: Sum(rhs),rhsMax =  -1.02770819410125E-07  8.43635626330932E+00
 cg2d: Sum(rhs),rhsMax =  -1.02836231974379E-07  8.43104036727980E+00
 cg2d: Sum(rhs),rhsMax =  -1.02899214482477E-07  8.42590597581903E+00
 cg2d: Sum(rhs),rhsMax =  -1.02960150627496E-07  8.42096861540595E+00
 cg2d: Sum(rhs),rhsMax =  -1.03018727770632E-07  8.41624063283881E+00
 cg2d: Sum(rhs),rhsMax =  -1.03074462742825E-07  8.41173099284368E+00
 cg2d: Sum(rhs),rhsMax =  -1.03127582917750E-07  8.40744522364360E+00
 cg2d: Sum(rhs),rhsMax =  -1.03177704602331E-07  8.40338548638234E+00
 cg2d: Sum(rhs),rhsMax =  -1.03225289649345E-07  8.39955071057647E+00
 cg2d: Sum(rhs),rhsMax =  -1.03270444640202E-07  8.39593686353065E+00
 cg2d: Sum(rhs),rhsMax =  -1.03312800092681E-07  8.39253726007720E+00
 cg2d: Sum(rhs),rhsMax =  -1.03352554958747E-07  8.38934286490718E+00
 cg2d: Sum(rhs),rhsMax =  -1.03389886874083E-07  8.38634267692018E+00
 cg2d: Sum(rhs),rhsMax =  -1.03425186637196E-07  8.38352418466840E+00
 cg2d: Sum(rhs),rhsMax =  -1.03458575040349E-07  8.38087384792736E+00
 cg2d: Sum(rhs),rhsMax =  -1.03489654179612E-07  8.37837764295235E+00
 cg2d: Sum(rhs),rhsMax =  -1.03519347760539E-07  8.37602165023152E+00
 cg2d: Sum(rhs),rhsMax =  -1.03547364460610E-07  8.37379265495454E+00
 cg2d: Sum(rhs),rhsMax =  -1.03573896126363E-07  8.37167859305842E+00
 cg2d: Sum(rhs),rhsMax =  -1.03599155920620E-07  8.36966841617237E+00
 cg2d: Sum(rhs),rhsMax =  -1.03623357006200E-07  8.36775262363169E+00
 cg2d: Sum(rhs),rhsMax =  -1.03646584648232E-07  8.36592322530019E+00
 cg2d: Sum(rhs),rhsMax =  -1.03668426731929E-07  8.36417370361670E+00
 cg2d: Sum(rhs),rhsMax =  -1.03689806962848E-07  8.36249893566327E+00
 cg2d: Sum(rhs),rhsMax =  -1.03710164012227E-07  8.36089512198643E+00
 cg2d: Sum(rhs),rhsMax =  -1.03729064448999E-07  8.35935972193128E+00
 cg2d: Sum(rhs),rhsMax =  -1.03747986202052E-07  8.35789132052859E+00
 cg2d: Sum(rhs),rhsMax =  -1.03765373182796E-07  8.35648953984663E+00
 cg2d: Sum(rhs),rhsMax =  -1.03782369365035E-07  8.35515503666620E+00
 cg2d: Sum(rhs),rhsMax =  -1.03798733164240E-07  8.35388959337713E+00
 cg2d: Sum(rhs),rhsMax =  -1.03813491136862E-07  8.35269612989214E+00
 cg2d: Sum(rhs),rhsMax =  -1.03827638042731E-07  8.35157865319166E+00
 cg2d: Sum(rhs),rhsMax =  -1.03841280463257E-07  8.35054220321588E+00
 cg2d: Sum(rhs),rhsMax =  -1.03853331268056E-07  8.34959282244478E+00
 cg2d: Sum(rhs),rhsMax =  -1.03864024936229E-07  8.34873757212784E+00
 cg2d: Sum(rhs),rhsMax =  -1.03873794898846E-07  8.34798443944571E+00
 cg2d: Sum(rhs),rhsMax =  -1.03881951929452E-07  8.34734205444848E+00
 cg2d: Sum(rhs),rhsMax =  -1.03888730507151E-07  8.34681927427749E+00
 cg2d: Sum(rhs),rhsMax =  -1.03893782466002E-07  8.34642479662444E+00
 cg2d: Sum(rhs),rhsMax =  -1.03896695691219E-07  8.34616690162161E+00
 cg2d: Sum(rhs),rhsMax =  -1.03898251779810E-07  8.34605328416144E+00
 cg2d: Sum(rhs),rhsMax =  -1.03897747294468E-07  8.34609086201575E+00
 cg2d: Sum(rhs),rhsMax =  -1.03895416714295E-07  8.34628560159372E+00
 cg2d: Sum(rhs),rhsMax =  -1.03891132141598E-07  8.34664238294981E+00
 cg2d: Sum(rhs),rhsMax =  -1.03884730151549E-07  8.34716488141953E+00
 cg2d: Sum(rhs),rhsMax =  -1.03876232060429E-07  8.34785544920597E+00
 cg2d: Sum(rhs),rhsMax =  -1.03865339440290E-07  8.34871504733891E+00
 cg2d: Sum(rhs),rhsMax =  -1.03852393351644E-07  8.34974320296400E+00
 cg2d: Sum(rhs),rhsMax =  -1.03837578535604E-07  8.35093803633076E+00
 cg2d: Sum(rhs),rhsMax =  -1.03820866570459E-07  8.35229628921908E+00
 cg2d: Sum(rhs),rhsMax =  -1.03801575335183E-07  8.35381348895399E+00
 cg2d: Sum(rhs),rhsMax =  -1.03780770643880E-07  8.35548405560547E+00
 cg2d: Sum(rhs),rhsMax =  -1.03758168279455E-07  8.35730145035772E+00
 cg2d: Sum(rhs),rhsMax =  -1.03734052459004E-07  8.35925834161856E+00
 cg2d: Sum(rhs),rhsMax =  -1.03707641585515E-07  8.36134677020027E+00
 cg2d: Sum(rhs),rhsMax =  -1.03680264373907E-07  8.36355833544679E+00
 EXTERNAL_FIELDS_LOAD, it=   3600630 : Reading new data, i0,i1=   11   12 (prev=   10   11 )
 DIC_FIELDS_LOAD, it=   3600630 : Reading new data, i0,i1=   11   12 (prev=   10   11 )
 cg2d: Sum(rhs),rhsMax =  -1.03651167648877E-07  8.36588437297216E+00
 cg2d: Sum(rhs),rhsMax =  -1.03620983793462E-07  8.36829873825493E+00
 cg2d: Sum(rhs),rhsMax =  -1.03590167555012E-07  8.37078098256463E+00
 cg2d: Sum(rhs),rhsMax =  -1.03558832620365E-07  8.37331076990736E+00
 cg2d: Sum(rhs),rhsMax =  -1.03526986094948E-07  8.37586828475342E+00
 cg2d: Sum(rhs),rhsMax =  -1.03494969039275E-07  8.37843651347270E+00
 cg2d: Sum(rhs),rhsMax =  -1.03462959089029E-07  8.38100058596186E+00
 cg2d: Sum(rhs),rhsMax =  -1.03431759157502E-07  8.38354800119352E+00
 cg2d: Sum(rhs),rhsMax =  -1.03400431328282E-07  8.38606907281455E+00
 cg2d: Sum(rhs),rhsMax =  -1.03369536930131E-07  8.38855705740912E+00
 cg2d: Sum(rhs),rhsMax =  -1.03339182544460E-07  8.39100818777902E+00
 cg2d: Sum(rhs),rhsMax =  -1.03309091059600E-07  8.39342162927294E+00
 cg2d: Sum(rhs),rhsMax =  -1.03279326424399E-07  8.39579937673915E+00
 cg2d: Sum(rhs),rhsMax =  -1.03250158645096E-07  8.39814606298476E+00
 cg2d: Sum(rhs),rhsMax =  -1.03221587721691E-07  8.40046867037939E+00
 cg2d: Sum(rhs),rhsMax =  -1.03192640210636E-07  8.40277617859981E+00
 cg2d: Sum(rhs),rhsMax =  -1.03164317977189E-07  8.40507915533000E+00
 cg2d: Sum(rhs),rhsMax =  -1.03135583628955E-07  8.40738929078001E+00
 cg2d: Sum(rhs),rhsMax =  -1.03106465587643E-07  8.40971893982490E+00
 cg2d: Sum(rhs),rhsMax =  -1.03077603341717E-07  8.41208069021930E+00
 cg2d: Sum(rhs),rhsMax =  -1.03047760546815E-07  8.41448664736628E+00
 cg2d: Sum(rhs),rhsMax =  -1.03017328001442E-07  8.41694808963461E+00
 cg2d: Sum(rhs),rhsMax =  -1.02985850958248E-07  8.41947641344255E+00
 cg2d: Sum(rhs),rhsMax =  -1.02953762848301E-07  8.42209465677943E+00
 cg2d: Sum(rhs),rhsMax =  -1.02920779454507E-07  8.42481840011152E+00
 cg2d: Sum(rhs),rhsMax =  -1.02885756803062E-07  8.42766143831664E+00
 cg2d: Sum(rhs),rhsMax =  -1.02849760708068E-07  8.43063562227923E+00
 cg2d: Sum(rhs),rhsMax =  -1.02811505087175E-07  8.43375048923612E+00
 cg2d: Sum(rhs),rhsMax =  -1.02771743115682E-07  8.43701312183894E+00
 cg2d: Sum(rhs),rhsMax =  -1.02730268736195E-07  8.44042805498092E+00
 cg2d: Sum(rhs),rhsMax =  -1.02686364300553E-07  8.44399728026233E+00
 cg2d: Sum(rhs),rhsMax =  -1.02641237731405E-07  8.44772028674299E+00
 cg2d: Sum(rhs),rhsMax =  -1.02594057693750E-07  8.45159419183708E+00
 cg2d: Sum(rhs),rhsMax =  -1.02545079982974E-07  8.45561389463918E+00
 cg2d: Sum(rhs),rhsMax =  -1.02494418285914E-07  8.45977229544668E+00
 cg2d: Sum(rhs),rhsMax =  -1.02442626825905E-07  8.46406043486096E+00
 cg2d: Sum(rhs),rhsMax =  -1.02389186906748E-07  8.46846786249842E+00
 cg2d: Sum(rhs),rhsMax =  -1.02334411167249E-07  8.47298294092153E+00
 cg2d: Sum(rhs),rhsMax =  -1.02278569613645E-07  8.47759310010859E+00
 cg2d: Sum(rhs),rhsMax =  -1.02221783038203E-07  8.48228511495217E+00
 cg2d: Sum(rhs),rhsMax =  -1.02164435134000E-07  8.48704540520819E+00
 cg2d: Sum(rhs),rhsMax =  -1.02106639587873E-07  8.49186038102640E+00
 cg2d: Sum(rhs),rhsMax =  -1.02048161920720E-07  8.49671683330553E+00
 cg2d: Sum(rhs),rhsMax =  -1.01989222400789E-07  8.50160229731839E+00
 cg2d: Sum(rhs),rhsMax =  -1.01930119456028E-07  8.50650541756349E+00
 cg2d: Sum(rhs),rhsMax =  -1.01871734159431E-07  8.51141606286167E+00
 cg2d: Sum(rhs),rhsMax =  -1.01813114383731E-07  8.51632550458549E+00
 cg2d: Sum(rhs),rhsMax =  -1.01754352499484E-07  8.52122658728227E+00
 cg2d: Sum(rhs),rhsMax =  -1.01695938781177E-07  8.52611387363114E+00
 cg2d: Sum(rhs),rhsMax =  -1.01637908755947E-07  8.53098375482528E+00
 cg2d: Sum(rhs),rhsMax =  -1.01580091893538E-07  8.53583450654913E+00
 cg2d: Sum(rhs),rhsMax =  -1.01522516615660E-07  8.54066629803099E+00
 cg2d: Sum(rhs),rhsMax =  -1.01465325030858E-07  8.54548114840508E+00
 cg2d: Sum(rhs),rhsMax =  -1.01408510033707E-07  8.55028281355603E+00
 cg2d: Sum(rhs),rhsMax =  -1.01351844250530E-07  8.55507663782142E+00
 cg2d: Sum(rhs),rhsMax =  -1.01294901355686E-07  8.55986938569464E+00
 cg2d: Sum(rhs),rhsMax =  -1.01238242677937E-07  8.56466907941720E+00
 cg2d: Sum(rhs),rhsMax =  -1.01181711897880E-07  8.56948481849350E+00
 cg2d: Sum(rhs),rhsMax =  -1.01124427942523E-07  8.57432655386490E+00
 cg2d: Sum(rhs),rhsMax =  -1.01066994773191E-07  8.57920482306538E+00
 EXTERNAL_FIELDS_LOAD, it=   3600690 : Reading new data, i0,i1=   12    1 (prev=   11   12 )
 DIC_FIELDS_LOAD, it=   3600690 : Reading new data, i0,i1=   12    1 (prev=   11   12 )
 cg2d: Sum(rhs),rhsMax =  -1.01009099751082E-07  8.58413045456863E+00
 cg2d: Sum(rhs),rhsMax =  -1.00950970249869E-07  8.58908772075261E+00
 cg2d: Sum(rhs),rhsMax =  -1.00892201260194E-07  8.59407113784658E+00
 cg2d: Sum(rhs),rhsMax =  -1.00833979388426E-07  8.59907533504329E+00
 cg2d: Sum(rhs),rhsMax =  -1.00775366718153E-07  8.60409527812640E+00
 cg2d: Sum(rhs),rhsMax =  -1.00716533779632E-07  8.60912639608676E+00
 cg2d: Sum(rhs),rhsMax =  -1.00657807422522E-07  8.61416467727663E+00
 cg2d: Sum(rhs),rhsMax =  -1.00599194752249E-07  8.61920670304104E+00
 cg2d: Sum(rhs),rhsMax =  -1.00540219705181E-07  8.62424959025954E+00
 cg2d: Sum(rhs),rhsMax =  -1.00481713616318E-07  8.62929084710763E+00
 cg2d: Sum(rhs),rhsMax =  -1.00423278581729E-07  8.63432823431656E+00
 cg2d: Sum(rhs),rhsMax =  -1.00365085131671E-07  8.63935967110789E+00
 cg2d: Sum(rhs),rhsMax =  -1.00306984052168E-07  8.64438326330631E+00
 cg2d: Sum(rhs),rhsMax =  -1.00248698231553E-07  8.64939736363611E+00
 cg2d: Sum(rhs),rhsMax =  -1.00191144269957E-07  8.65440069908248E+00
 cg2d: Sum(rhs),rhsMax =  -1.00133568992078E-07  8.65939260929048E+00
 cg2d: Sum(rhs),rhsMax =  -1.00076100295610E-07  8.66437312037654E+00
 cg2d: Sum(rhs),rhsMax =  -1.00019036608501E-07  8.66934290835576E+00
 cg2d: Sum(rhs),rhsMax =  -9.99617597585711E-08  8.67430225124478E+00
 cg2d: Sum(rhs),rhsMax =  -9.99047102823170E-08  8.67925494682890E+00
 cg2d: Sum(rhs),rhsMax =  -9.98482363456787E-08  8.68420608713978E+00
 cg2d: Sum(rhs),rhsMax =  -9.97913716105359E-08  8.68916081980566E+00
 cg2d: Sum(rhs),rhsMax =  -9.97343434505638E-08  8.69412416784580E+00
 cg2d: Sum(rhs),rhsMax =  -9.96773295014464E-08  8.69910085245627E+00
 cg2d: Sum(rhs),rhsMax =  -9.96202871306195E-08  8.70409517445086E+00
 cg2d: Sum(rhs),rhsMax =  -9.95629250155616E-08  8.70911095741398E+00
 cg2d: Sum(rhs),rhsMax =  -9.95059110664442E-08  8.71415148969223E+00
 cg2d: Sum(rhs),rhsMax =  -9.94480160443345E-08  8.71921930590513E+00
 cg2d: Sum(rhs),rhsMax =  -9.93902702361993E-08  8.72431607432102E+00
 cg2d: Sum(rhs),rhsMax =  -9.93317215147727E-08  8.72944261226047E+00
 cg2d: Sum(rhs),rhsMax =  -9.92735280647139E-08  8.73459893266904E+00
 cg2d: Sum(rhs),rhsMax =  -9.92147448641845E-08  8.73978430818157E+00
 cg2d: Sum(rhs),rhsMax =  -9.91560966667748E-08  8.74499735837366E+00
 cg2d: Sum(rhs),rhsMax =  -9.90966526615011E-08  8.75023614706347E+00
 cg2d: Sum(rhs),rhsMax =  -9.90366970654577E-08  8.75549829188909E+00
 cg2d: Sum(rhs),rhsMax =  -9.89772743764661E-08  8.76078107848702E+00
 cg2d: Sum(rhs),rhsMax =  -9.89177024735000E-08  8.76608155580086E+00
 cg2d: Sum(rhs),rhsMax =  -9.88579742511320E-08  8.77139664107964E+00
 cg2d: Sum(rhs),rhsMax =  -9.87977060162848E-08  8.77672320795606E+00
 cg2d: Sum(rhs),rhsMax =  -9.87382264838743E-08  8.78205816635757E+00
(PID.TID 0000.0001) Did not write pickup because writePickupAtEnd = FALSE
 DIC_SURFFORCING_INIT, it=   3600000 : Reading new data, i0,i1=   12    1
 QQ: pCO2 approximation method
 QQ first guess pH 8.2869849781645275,  7.129213793781922,  34.1535348423009,  2.0282,  5.43799999999999991E-4,  8.08490416966378689E-3,  2.3086000000000002
(PID.TID 0000.0001) // =======================================================
(PID.TID 0000.0001) // Model current state
(PID.TID 0000.0001) // =======================================================
(PID.TID 0000.0001) 
 EXTERNAL_FIELDS_LOAD, it=   3600000 : Reading new data, i0,i1=   12    1 (prev=   12    0 )
 DIC_FIELDS_LOAD, it=   3600000 : Reading new data, i0,i1=   12    1 (prev=   12    0 )
 cg2d: Sum(rhs),rhsMax =  -9.92433868418630E-08  8.73439671821315E+00
 cg2d: Sum(rhs),rhsMax =  -9.91844260056496E-08  8.73957958587058E+00
 cg2d: Sum(rhs),rhsMax =  -9.91252449011881E-08  8.74478969091806E+00
 cg2d: Sum(rhs),rhsMax =  -9.90665185440776E-08  8.75002495477880E+00
 cg2d: Sum(rhs),rhsMax =  -9.90068542705558E-08  8.75528284057604E+00
 cg2d: Sum(rhs),rhsMax =  -9.89473534218632E-08  8.76056047500076E+00
 cg2d: Sum(rhs),rhsMax =  -9.88878241514612E-08  8.76585475900637E+00
 cg2d: Sum(rhs),rhsMax =  -9.88279893476829E-08  8.77116249138180E+00
 cg2d: Sum(rhs),rhsMax =  -9.87682469144602E-08  8.77648047471154E+00
 cg2d: Sum(rhs),rhsMax =  -9.87087602766223E-08  8.78180560756084E+00
 cg2d: Sum(rhs),rhsMax =  -9.86489112619893E-08  8.78713494778165E+00
 cg2d: Sum(rhs),rhsMax =  -9.85891404070571E-08  8.79246575399440E+00
 cg2d: Sum(rhs),rhsMax =  -9.85293340249882E-08  8.79779549299699E+00
 cg2d: Sum(rhs),rhsMax =  -9.84700747608258E-08  8.80312181092759E+00
 cg2d: Sum(rhs),rhsMax =  -9.84108581292276E-08  8.80844249631459E+00
 cg2d: Sum(rhs),rhsMax =  -9.83516486030567E-08  8.81375547068360E+00
 cg2d: Sum(rhs),rhsMax =  -9.82926522397065E-08  8.81905885446822E+00
 cg2d: Sum(rhs),rhsMax =  -9.82337553523394E-08  8.82435106608147E+00
 cg2d: Sum(rhs),rhsMax =  -9.81751568929212E-08  8.82963093738125E+00
 cg2d: Sum(rhs),rhsMax =  -9.81166650149135E-08  8.83489782452132E+00
 cg2d: Sum(rhs),rhsMax =  -9.80585213028462E-08  8.84015168145881E+00
 cg2d: Sum(rhs),rhsMax =  -9.80007470730015E-08  8.84539306572338E+00
 cg2d: Sum(rhs),rhsMax =  -9.79429586323022E-08  8.85062306296846E+00
 cg2d: Sum(rhs),rhsMax =  -9.78853904598509E-08  8.85584316140559E+00
 cg2d: Sum(rhs),rhsMax =  -9.78280425556477E-08  8.86105508303604E+00
 cg2d: Sum(rhs),rhsMax =  -9.77709291305473E-08  8.86626061391844E+00
 cg2d: Sum(rhs),rhsMax =  -9.77132472712583E-08  8.87146147123075E+00
 cg2d: Sum(rhs),rhsMax =  -9.76563327981239E-08  8.87665923110881E+00
 cg2d: Sum(rhs),rhsMax =  -9.75990843699037E-08  8.88185530584736E+00
 cg2d: Sum(rhs),rhsMax =  -9.75420704207863E-08  8.88705095973601E+00
 EXTERNAL_FIELDS_LOAD, it=   3600030 : Reading new data, i0,i1=    1    2 (prev=   12    1 )
 DIC_FIELDS_LOAD, it=   3600030 : Reading new data, i0,i1=    1    2 (prev=   12    1 )
 cg2d: Sum(rhs),rhsMax =  -9.74853406887632E-08  8.89224735691429E+00
 cg2d: Sum(rhs),rhsMax =  -9.74287814869967E-08  8.89742706375180E+00
 cg2d: Sum(rhs),rhsMax =  -9.73723857100595E-08  8.90258000132907E+00
 cg2d: Sum(rhs),rhsMax =  -9.73164659967551E-08  8.90769672951691E+00
 cg2d: Sum(rhs),rhsMax =  -9.72612284044772E-08  8.91276878246959E+00
 cg2d: Sum(rhs),rhsMax =  -9.72070637317302E-08  8.91778889429735E+00
 cg2d: Sum(rhs),rhsMax =  -9.71530482729577E-08  8.92275113682099E+00
 cg2d: Sum(rhs),rhsMax =  -9.70993241367069E-08  8.92765100404361E+00
 cg2d: Sum(rhs),rhsMax =  -9.70471916161841E-08  8.93248545016401E+00
 cg2d: Sum(rhs),rhsMax =  -9.69955280538670E-08  8.93725287491615E+00
 cg2d: Sum(rhs),rhsMax =  -9.69441273923621E-08  8.94195305183593E+00
 cg2d: Sum(rhs),rhsMax =  -9.68941833434656E-08  8.94658701582531E+00
 cg2d: Sum(rhs),rhsMax =  -9.68450208915783E-08  8.95115692214719E+00
 cg2d: Sum(rhs),rhsMax =  -9.67962705544778E-08  8.95566589123099E+00
 cg2d: Sum(rhs),rhsMax =  -9.67482165492584E-08  8.96011786358850E+00
 cg2d: Sum(rhs),rhsMax =  -9.67008020325011E-08  8.96451747891563E+00
 cg2d: Sum(rhs),rhsMax =  -9.66539346336504E-08  8.96886998187158E+00
 cg2d: Sum(rhs),rhsMax =  -9.66078843589457E-08  8.97318115409823E+00
 cg2d: Sum(rhs),rhsMax =  -9.65621254067628E-08  8.97745726495199E+00
 cg2d: Sum(rhs),rhsMax =  -9.65159685506478E-08  8.98170502198163E+00
 cg2d: Sum(rhs),rhsMax =  -9.64709272466280E-08  8.98593151889555E+00
 cg2d: Sum(rhs),rhsMax =  -9.64258006774799E-08  8.99014423145949E+00
 cg2d: Sum(rhs),rhsMax =  -9.63806954246138E-08  8.99435085408351E+00
 cg2d: Sum(rhs),rhsMax =  -9.63354978011921E-08  8.99855914272681E+00
 cg2d: Sum(rhs),rhsMax =  -9.62904493917449E-08  9.00277662786875E+00
 cg2d: Sum(rhs),rhsMax =  -9.62449746566563E-08  9.00700998220796E+00
 cg2d: Sum(rhs),rhsMax =  -9.61997557169525E-08  9.01126574761483E+00
 cg2d: Sum(rhs),rhsMax =  -9.61540180810516E-08  9.01555039729210E+00
 cg2d: Sum(rhs),rhsMax =  -9.61077120109621E-08  9.01986971435378E+00
 cg2d: Sum(rhs),rhsMax =  -9.60613775191632E-08  9.02422880815445E+00
 cg2d: Sum(rhs),rhsMax =  -9.60143182737738E-08  9.02863205182447E+00
 cg2d: Sum(rhs),rhsMax =  -9.59668398081703E-08  9.03308295193821E+00
 cg2d: Sum(rhs),rhsMax =  -9.59189492277801E-08  9.03758400719746E+00
 cg2d: Sum(rhs),rhsMax =  -9.58706323217484E-08  9.04213663854453E+00
 cg2d: Sum(rhs),rhsMax =  -9.58215622404168E-08  9.04674109185253E+00
 cg2d: Sum(rhs),rhsMax =  -9.57721724148541E-08  9.05139640217902E+00
 cg2d: Sum(rhs),rhsMax =  -9.57223775799321E-08  9.05610040614876E+00
 cg2d: Sum(rhs),rhsMax =  -9.56718224642827E-08  9.06084979109159E+00
 cg2d: Sum(rhs),rhsMax =  -9.56211039238042E-08  9.06564017672268E+00
 cg2d: Sum(rhs),rhsMax =  -9.55700798499493E-08  9.07046622792088E+00
 cg2d: Sum(rhs),rhsMax =  -9.55189918272481E-08  9.07532179655311E+00
 cg2d: Sum(rhs),rhsMax =  -9.54672145780933E-08  9.08020008054443E+00
 cg2d: Sum(rhs),rhsMax =  -9.54156860188959E-08  9.08509379067778E+00
 cg2d: Sum(rhs),rhsMax =  -9.53640864054250E-08  9.08999532389517E+00
 cg2d: Sum(rhs),rhsMax =  -9.53120391500306E-08  9.09489685062687E+00
 cg2d: Sum(rhs),rhsMax =  -9.52604963799786E-08  9.09979078670731E+00
 cg2d: Sum(rhs),rhsMax =  -9.52091738781746E-08  9.10466952325132E+00
 cg2d: Sum(rhs),rhsMax =  -9.51581995423112E-08  9.10952586151125E+00
 cg2d: Sum(rhs),rhsMax =  -9.51075378452515E-08  9.11435305322486E+00
 cg2d: Sum(rhs),rhsMax =  -9.50568974644739E-08  9.11914489544444E+00
 cg2d: Sum(rhs),rhsMax =  -9.50070173644235E-08  9.12389583482653E+00
 cg2d: Sum(rhs),rhsMax =  -9.49582670273230E-08  9.12860106773695E+00
 cg2d: Sum(rhs),rhsMax =  -9.49094669522310E-08  9.13325671324743E+00
 cg2d: Sum(rhs),rhsMax =  -9.48612637330370E-08  9.13785989332165E+00
 cg2d: Sum(rhs),rhsMax =  -9.48139060596986E-08  9.14240888612431E+00
 cg2d: Sum(rhs),rhsMax =  -9.47671381368309E-08  9.14690322805975E+00
 cg2d: Sum(rhs),rhsMax =  -9.47210025969980E-08  9.15134376400067E+00
 cg2d: Sum(rhs),rhsMax =  -9.46753857533622E-08  9.15573262291172E+00
 cg2d: Sum(rhs),rhsMax =  -9.46305078741716E-08  9.16007311317651E+00
 cg2d: Sum(rhs),rhsMax =  -9.45855020972886E-08  9.16436954661381E+00
 EXTERNAL_FIELDS_LOAD, it=   3600090 : Reading new data, i0,i1=    2    3 (prev=    1    2 )
 DIC_FIELDS_LOAD, it=   3600090 : Reading new data, i0,i1=    2    3 (prev=    1    2 )
 cg2d: Sum(rhs),rhsMax =  -9.45416047670733E-08  9.16862700792054E+00
 cg2d: Sum(rhs),rhsMax =  -9.44977784911316E-08  9.17286965792043E+00
 cg2d: Sum(rhs),rhsMax =  -9.44538882663437E-08  9.17711460232796E+00
 cg2d: Sum(rhs),rhsMax =  -9.44097777733077E-08  9.18137827264839E+00
 cg2d: Sum(rhs),rhsMax =  -9.43655606988614E-08  9.18567586102450E+00
 cg2d: Sum(rhs),rhsMax =  -9.43208533499273E-08  9.19002086507332E+00
 cg2d: Sum(rhs),rhsMax =  -9.42755065125311E-08  9.19442473147613E+00
 cg2d: Sum(rhs),rhsMax =  -9.42294988703907E-08  9.19889660310093E+00
 cg2d: Sum(rhs),rhsMax =  -9.41831217460276E-08  9.20344317156002E+00
 cg2d: Sum(rhs),rhsMax =  -9.41357711781166E-08  9.20806863385625E+00
 cg2d: Sum(rhs),rhsMax =  -9.40875679589226E-08  9.21277472508850E+00
 cg2d: Sum(rhs),rhsMax =  -9.40387323566938E-08  9.21756082935263E+00
 cg2d: Sum(rhs),rhsMax =  -9.39891506845925E-08  9.22242415169496E+00
 cg2d: Sum(rhs),rhsMax =  -9.39387589937724E-08  9.22735992735964E+00
 cg2d: Sum(rhs),rhsMax =  -9.38874578082505E-08  9.23236166048178E+00
 cg2d: Sum(rhs),rhsMax =  -9.38360713576003E-08  9.23742136926884E+00
 cg2d: Sum(rhs),rhsMax =  -9.37847204340869E-08  9.24252982829311E+00
 cg2d: Sum(rhs),rhsMax =  -9.37326518624104E-08  9.24767682825910E+00
 cg2d: Sum(rhs),rhsMax =  -9.36799651185538E-08  9.25285135651627E+00
 cg2d: Sum(rhs),rhsMax =  -9.36278468088858E-08  9.25804181556396E+00
 cg2d: Sum(rhs),rhsMax =  -9.35753803332773E-08  9.26323624437734E+00
 cg2d: Sum(rhs),rhsMax =  -9.35233543941649E-08  9.26842252954541E+00
 cg2d: Sum(rhs),rhsMax =  -9.34712076627875E-08  9.27358855590945E+00
 cg2d: Sum(rhs),rhsMax =  -9.34198851609835E-08  9.27872221865362E+00
 cg2d: Sum(rhs),rhsMax =  -9.33687331894362E-08  9.28381269175841E+00
 cg2d: Sum(rhs),rhsMax =  -9.33183130769066E-08  9.28884990364347E+00
 cg2d: Sum(rhs),rhsMax =  -9.32684542931383E-08  9.29382460831193E+00
 cg2d: Sum(rhs),rhsMax =  -9.32194410552256E-08  9.29872876125425E+00
 cg2d: Sum(rhs),rhsMax =  -9.31711383600486E-08  9.30355578941157E+00
 cg2d: Sum(rhs),rhsMax =  -9.31240364820951E-08  9.30830071441787E+00
 cg2d: Sum(rhs),rhsMax =  -9.30773893514925E-08  9.31296016039586E+00
 cg2d: Sum(rhs),rhsMax =  -9.30318719838397E-08  9.31753230345820E+00
 cg2d: Sum(rhs),rhsMax =  -9.29872783217434E-08  9.32201677457960E+00
 cg2d: Sum(rhs),rhsMax =  -9.29437931063148E-08  9.32641453687162E+00
 cg2d: Sum(rhs),rhsMax =  -9.29007910599466E-08  9.33072777407330E+00
 cg2d: Sum(rhs),rhsMax =  -9.28590253579387E-08  9.33495977832897E+00
 cg2d: Sum(rhs),rhsMax =  -9.28177001924269E-08  9.33911483571782E+00
 cg2d: Sum(rhs),rhsMax =  -9.27770358316593E-08  9.34319809772528E+00
 cg2d: Sum(rhs),rhsMax =  -9.27373591252945E-08  9.34721542637213E+00
 cg2d: Sum(rhs),rhsMax =  -9.26982295368362E-08  9.35117321728378E+00
 cg2d: Sum(rhs),rhsMax =  -9.26594978523099E-08  9.35507820898651E+00
 cg2d: Sum(rhs),rhsMax =  -9.26212777585533E-08  9.35893728101038E+00
 cg2d: Sum(rhs),rhsMax =  -9.25836900478316E-08  9.36275724876052E+00
 cg2d: Sum(rhs),rhsMax =  -9.25467347201447E-08  9.36654466497940E+00
 cg2d: Sum(rhs),rhsMax =  -9.25093388559617E-08  9.37030563739009E+00
 cg2d: Sum(rhs),rhsMax =  -9.24723693174201E-08  9.37404566529748E+00
 cg2d: Sum(rhs),rhsMax =  -9.24358261045199E-08  9.37776950669782E+00
 cg2d: Sum(rhs),rhsMax =  -9.23998015878169E-08  9.38148107939576E+00
 cg2d: Sum(rhs),rhsMax =  -9.23633649563271E-08  9.38518340080342E+00
 cg2d: Sum(rhs),rhsMax =  -9.23271628039402E-08  9.38887856431341E+00
 cg2d: Sum(rhs),rhsMax =  -9.22907545941598E-08  9.39256775253961E+00
 cg2d: Sum(rhs),rhsMax =  -9.22549361348501E-08  9.39625127829926E+00
 cg2d: Sum(rhs),rhsMax =  -9.22186487173349E-08  9.39992865313115E+00
 cg2d: Sum(rhs),rhsMax =  -9.21831713185384E-08  9.40359867110262E+00
 cg2d: Sum(rhs),rhsMax =  -9.21473457538013E-08  9.40725949891390E+00
 cg2d: Sum(rhs),rhsMax =  -9.21119038821416E-08  9.41090875978471E+00
 cg2d: Sum(rhs),rhsMax =  -9.20763412182168E-08  9.41454361858659E+00
 cg2d: Sum(rhs),rhsMax =  -9.20410343496769E-08  9.41816086827301E+00
 cg2d: Sum(rhs),rhsMax =  -9.20060685416502E-08  9.42175701532902E+00
 cg2d: Sum(rhs),rhsMax =  -9.19711879987517E-08  9.42532836100955E+00
 EXTERNAL_FIELDS_LOAD, it=   3600150 : Reading new data, i0,i1=    3    4 (prev=    2    3 )
 DIC_FIELDS_LOAD, it=   3600150 : Reading new data, i0,i1=    3    4 (prev=    2    3 )
 cg2d: Sum(rhs),rhsMax =  -9.19367622032041E-08  9.42887108055882E+00
 cg2d: Sum(rhs),rhsMax =  -9.19030327395376E-08  9.43235832256638E+00
 cg2d: Sum(rhs),rhsMax =  -9.18696727580937E-08  9.43577294710938E+00
 cg2d: Sum(rhs),rhsMax =  -9.18375349101552E-08  9.43909901719340E+00
 cg2d: Sum(rhs),rhsMax =  -9.18056457521743E-08  9.44232226351574E+00
 cg2d: Sum(rhs),rhsMax =  -9.17754618967592E-08  9.44543045713848E+00
 cg2d: Sum(rhs),rhsMax =  -9.17468696570722E-08  9.44841368652191E+00
 cg2d: Sum(rhs),rhsMax =  -9.17188671678559E-08  9.45126453300903E+00
 cg2d: Sum(rhs),rhsMax =  -9.16929749905648E-08  9.45397814472091E+00
 cg2d: Sum(rhs),rhsMax =  -9.16680278351123E-08  9.45655223330268E+00
 cg2d: Sum(rhs),rhsMax =  -9.16445941356869E-08  9.45898700078271E+00
 cg2d: Sum(rhs),rhsMax =  -9.16223754643397E-08  9.46128500172268E+00
 cg2d: Sum(rhs),rhsMax =  -9.16011231311131E-08  9.46345095767279E+00
 cg2d: Sum(rhs),rhsMax =  -9.15811568802383E-08  9.46549153513779E+00
 cg2d: Sum(rhs),rhsMax =  -9.15625619768434E-08  9.46741508859273E+00
 cg2d: Sum(rhs),rhsMax =  -9.15451252581079E-08  9.46923137659912E+00
 cg2d: Sum(rhs),rhsMax =  -9.15285980340741E-08  9.47095124324780E+00
 cg2d: Sum(rhs),rhsMax =  -9.15126108225195E-08  9.47258633929544E+00
 cg2d: Sum(rhs),rhsMax =  -9.14974762622478E-08  9.47414881667898E+00
 cg2d: Sum(rhs),rhsMax =  -9.14831588261222E-08  9.47565102854520E+00
 cg2d: Sum(rhs),rhsMax =  -9.14691185016636E-08  9.47710524161440E+00
 cg2d: Sum(rhs),rhsMax =  -9.14552913400257E-08  9.47852337330871E+00
 cg2d: Sum(rhs),rhsMax =  -9.14417910280463E-08  9.47991675839448E+00
 cg2d: Sum(rhs),rhsMax =  -9.14288023068366E-08  9.48129594936036E+00
 cg2d: Sum(rhs),rhsMax =  -9.14153162057119E-08  9.48267055268677E+00
 cg2d: Sum(rhs),rhsMax =  -9.14016951014673E-08  9.48404910672501E+00
 cg2d: Sum(rhs),rhsMax =  -9.13883866360266E-08  9.48543898881096E+00
 cg2d: Sum(rhs),rhsMax =  -9.13749147457565E-08  9.48684634838855E+00
 cg2d: Sum(rhs),rhsMax =  -9.13611231112554E-08  9.48827608016959E+00
 cg2d: Sum(rhs),rhsMax =  -9.13465854068818E-08  9.48973182637241E+00
 cg2d: Sum(rhs),rhsMax =  -9.13324456064402E-08  9.49121598932757E+00
 cg2d: Sum(rhs),rhsMax =  -9.13176805283911E-08  9.49272976482376E+00
 cg2d: Sum(rhs),rhsMax =  -9.13029793991882E-08  9.49427318407705E+00
 cg2d: Sum(rhs),rhsMax =  -9.12876600978052E-08  9.49584517202971E+00
 cg2d: Sum(rhs),rhsMax =  -9.12722768475760E-08  9.49744362566448E+00
 cg2d: Sum(rhs),rhsMax =  -9.12563962174318E-08  9.49906550905340E+00
 cg2d: Sum(rhs),rhsMax =  -9.12406292741252E-08  9.50070696299551E+00
 cg2d: Sum(rhs),rhsMax =  -9.12245567974423E-08  9.50236342680402E+00
 cg2d: Sum(rhs),rhsMax =  -9.12086122184519E-08  9.50402976802920E+00
 cg2d: Sum(rhs),rhsMax =  -9.11920636781360E-08  9.50570042893596E+00
 cg2d: Sum(rhs),rhsMax =  -9.11760835720088E-08  9.50736956748404E+00
 cg2d: Sum(rhs),rhsMax =  -9.11599897790438E-08  9.50903122489705E+00
 cg2d: Sum(rhs),rhsMax =  -9.11439812512072E-08  9.51067944299842E+00
 cg2d: Sum(rhs),rhsMax =  -9.11286619498242E-08  9.51230836255520E+00
 cg2d: Sum(rhs),rhsMax =  -9.11128452685261E-08  9.51391232343393E+00
 cg2d: Sum(rhs),rhsMax =  -9.10978172896648E-08  9.51548598638282E+00
 cg2d: Sum(rhs),rhsMax =  -9.10825903588375E-08  9.51702443978652E+00
 cg2d: Sum(rhs),rhsMax =  -9.10679744947629E-08  9.51852327194360E+00
 cg2d: Sum(rhs),rhsMax =  -9.10538062726118E-08  9.51997861079381E+00
 cg2d: Sum(rhs),rhsMax =  -9.10403272769145E-08  9.52138713289450E+00
 cg2d: Sum(rhs),rhsMax =  -9.10271680254482E-08  9.52274605554116E+00
 cg2d: Sum(rhs),rhsMax =  -9.10143498344951E-08  9.52405313717331E+00
 cg2d: Sum(rhs),rhsMax =  -9.10022919242692E-08  9.52530666028232E+00
 cg2d: Sum(rhs),rhsMax =  -9.09905324419924E-08  9.52650541109617E+00
 cg2d: Sum(rhs),rhsMax =  -9.09794692915966E-08  9.52764864727963E+00
 cg2d: Sum(rhs),rhsMax =  -9.09689816808168E-08  9.52873605079492E+00
 cg2d: Sum(rhs),rhsMax =  -9.09588422359775E-08  9.52976767849440E+00
 cg2d: Sum(rhs),rhsMax =  -9.09493280687457E-08  9.53074391639987E+00
 cg2d: Sum(rhs),rhsMax =  -9.09404391791213E-08  9.53166530103624E+00
 cg2d: Sum(rhs),rhsMax =  -9.09316284491979E-08  9.53253252588939E+00
 EXTERNAL_FIELDS_LOAD, it=   3600210 : Reading new data, i0,i1=    4    5 (prev=    3    4 )
 DIC_FIELDS_LOAD, it=   3600210 : Reading new data, i0,i1=    4    5 (prev=    3    4 )
 cg2d: Sum(rhs),rhsMax =  -9.09236845814121E-08  9.53334634295211E+00
 cg2d: Sum(rhs),rhsMax =  -9.09162238826866E-08  9.53412016630968E+00
 cg2d: Sum(rhs),rhsMax =  -9.09088555545168E-08  9.53486144691540E+00
 cg2d: Sum(rhs),rhsMax =  -9.09020556605356E-08  9.53557668814411E+00
 cg2d: Sum(rhs),rhsMax =  -9.08950781308704E-08  9.53626990934916E+00
 cg2d: Sum(rhs),rhsMax =  -9.08885269268467E-08  9.53694479201801E+00
 cg2d: Sum(rhs),rhsMax =  -9.08819686173956E-08  9.53760402798875E+00
 cg2d: Sum(rhs),rhsMax =  -9.08758792661502E-08  9.53824943192211E+00
 cg2d: Sum(rhs),rhsMax =  -9.08692001644340E-08  9.53888215688552E+00
 cg2d: Sum(rhs),rhsMax =  -9.08633310814366E-08  9.53950304357000E+00
 cg2d: Sum(rhs),rhsMax =  -9.08575117364308E-08  9.54011304176576E+00
 cg2d: Sum(rhs),rhsMax =  -9.08516142317239E-08  9.54071301635899E+00
 cg2d: Sum(rhs),rhsMax =  -9.08458943627011E-08  9.54130322912294E+00
 cg2d: Sum(rhs),rhsMax =  -9.08400252797037E-08  9.54188272003942E+00
 cg2d: Sum(rhs),rhsMax =  -9.08349306882883E-08  9.54244934290944E+00
 cg2d: Sum(rhs),rhsMax =  -9.08295305634965E-08  9.54299999628384E+00
 cg2d: Sum(rhs),rhsMax =  -9.08241872821236E-08  9.54353092308816E+00
 cg2d: Sum(rhs),rhsMax =  -9.08189861092978E-08  9.54403796863502E+00
 cg2d: Sum(rhs),rhsMax =  -9.08142894218145E-08  9.54451678452915E+00
 cg2d: Sum(rhs),rhsMax =  -9.08097916862971E-08  9.54496303374895E+00
 cg2d: Sum(rhs),rhsMax =  -9.08056705384297E-08  9.54537256688658E+00
 cg2d: Sum(rhs),rhsMax =  -9.08016417611179E-08  9.54574155534994E+00
 cg2d: Sum(rhs),rhsMax =  -9.07979256226099E-08  9.54606657177462E+00
 cg2d: Sum(rhs),rhsMax =  -9.07952681927782E-08  9.54634467959792E+00
 cg2d: Sum(rhs),rhsMax =  -9.07924189164078E-08  9.54657345840157E+00
 cg2d: Sum(rhs),rhsMax =  -9.07902162339269E-08  9.54675102924543E+00
 cg2d: Sum(rhs),rhsMax =  -9.07886743561903E-08  9.54687605379506E+00
 cg2d: Sum(rhs),rhsMax =  -9.07877648614885E-08  9.54694771403842E+00
 cg2d: Sum(rhs),rhsMax =  -9.07869193156330E-08  9.54696566951997E+00
 cg2d: Sum(rhs),rhsMax =  -9.07865995714019E-08  9.54692999068711E+00
 cg2d: Sum(rhs),rhsMax =  -9.07872106381546E-08  9.54684108541375E+00
 cg2d: Sum(rhs),rhsMax =  -9.07884682987969E-08  9.54669963264824E+00
 cg2d: Sum(rhs),rhsMax =  -9.07898467517043E-08  9.54650651972953E+00
 cg2d: Sum(rhs),rhsMax =  -9.07915449488428E-08  9.54626274758502E+00
 cg2d: Sum(rhs),rhsMax =  -9.07941455352557E-08  9.54596935750525E+00
 cg2d: Sum(rhs),rhsMax =  -9.07970800767544E-08  9.54562738075971E+00
 cg2d: Sum(rhs),rhsMax =  -9.08000501453898E-08  9.54523778248193E+00
 cg2d: Sum(rhs),rhsMax =  -9.08038089164620E-08  9.54480140259877E+00
 cg2d: Sum(rhs),rhsMax =  -9.08078732209106E-08  9.54431888382345E+00
 cg2d: Sum(rhs),rhsMax =  -9.08128896526250E-08  9.54379063440704E+00
 cg2d: Sum(rhs),rhsMax =  -9.08179274006216E-08  9.54321682610369E+00
 cg2d: Sum(rhs),rhsMax =  -9.08231072571652E-08  9.54259741627488E+00
 cg2d: Sum(rhs),rhsMax =  -9.08294239820862E-08  9.54193218180504E+00
 cg2d: Sum(rhs),rhsMax =  -9.08357407070071E-08  9.54122075566689E+00
 cg2d: Sum(rhs),rhsMax =  -9.08426116552619E-08  9.54046266149910E+00
 cg2d: Sum(rhs),rhsMax =  -9.08497668206110E-08  9.53965734943055E+00
 cg2d: Sum(rhs),rhsMax =  -9.08576467395505E-08  9.53880424419014E+00
 cg2d: Sum(rhs),rhsMax =  -9.08659032461401E-08  9.53790282192021E+00
 cg2d: Sum(rhs),rhsMax =  -9.08746713434994E-08  9.53695268180845E+00
 cg2d: Sum(rhs),rhsMax =  -9.08840078750472E-08  9.53595362230667E+00
 cg2d: Sum(rhs),rhsMax =  -9.08936215182621E-08  9.53490571447803E+00
 cg2d: Sum(rhs),rhsMax =  -9.09042654484438E-08  9.53380930168364E+00
 cg2d: Sum(rhs),rhsMax =  -9.09145470018302E-08  9.53266493640869E+00
 cg2d: Sum(rhs),rhsMax =  -9.09259227910297E-08  9.53147332889492E+00
 cg2d: Sum(rhs),rhsMax =  -9.09384141323244E-08  9.53023537646442E+00
 cg2d: Sum(rhs),rhsMax =  -9.09505217805417E-08  9.52895220993865E+00
 cg2d: Sum(rhs),rhsMax =  -9.09629278567081E-08  9.52762520262973E+00
 cg2d: Sum(rhs),rhsMax =  -9.09757815747980E-08  9.52625594300855E+00
 cg2d: Sum(rhs),rhsMax =  -9.09892747813501E-08  9.52484621149773E+00
 cg2d: Sum(rhs),rhsMax =  -9.10029882561503E-08  9.52339794221070E+00
 EXTERNAL_FIELDS_LOAD, it=   3600270 : Reading new data, i0,i1=    5    6 (prev=    4    5 )
 DIC_FIELDS_LOAD, it=   3600270 : Reading new data, i0,i1=    5    6 (prev=    4    5 )
 cg2d: Sum(rhs),rhsMax =  -9.10169930534721E-08  9.52191318167782E+00
 cg2d: Sum(rhs),rhsMax =  -9.10311257484864E-08  9.52041761022813E+00
 cg2d: Sum(rhs),rhsMax =  -9.10455213443129E-08  9.51892843351038E+00
 cg2d: Sum(rhs),rhsMax =  -9.10593485059508E-08  9.51746258399289E+00
 cg2d: Sum(rhs),rhsMax =  -9.10729625047679E-08  9.51603636817957E+00
 cg2d: Sum(rhs),rhsMax =  -9.10860507019606E-08  9.51466517931999E+00
 cg2d: Sum(rhs),rhsMax =  -9.10986344138109E-08  9.51336322967766E+00
 cg2d: Sum(rhs),rhsMax =  -9.11102233658312E-08  9.51214329321166E+00
 cg2d: Sum(rhs),rhsMax =  -9.11212367782355E-08  9.51101645114812E+00
 cg2d: Sum(rhs),rhsMax =  -9.11308219997409E-08  9.50999185515969E+00
 cg2d: Sum(rhs),rhsMax =  -9.11397606273567E-08  9.50907652378690E+00
 cg2d: Sum(rhs),rhsMax =  -9.11473847509114E-08  9.50827517814543E+00
 cg2d: Sum(rhs),rhsMax =  -9.11540354309182E-08  9.50759014752173E+00
 cg2d: Sum(rhs),rhsMax =  -9.11595421371203E-08  9.50702134377118E+00
 cg2d: Sum(rhs),rhsMax =  -9.11640682943471E-08  9.50656629011210E+00
 cg2d: Sum(rhs),rhsMax =  -9.11673012637948E-08  9.50622019182364E+00
 cg2d: Sum(rhs),rhsMax =  -9.11696744765322E-08  9.50597606771963E+00
 cg2d: Sum(rhs),rhsMax =  -9.11708539774736E-08  9.50582494250500E+00
 cg2d: Sum(rhs),rhsMax =  -9.11716497853376E-08  9.50575608648473E+00
 cg2d: Sum(rhs),rhsMax =  -9.11714224116622E-08  9.50575729587021E+00
 cg2d: Sum(rhs),rhsMax =  -9.11708468720462E-08  9.50581523373235E+00
 cg2d: Sum(rhs),rhsMax =  -9.11699018502077E-08  9.50591575069248E+00
 cg2d: Sum(rhs),rhsMax =  -9.11685589244371E-08  9.50604420974297E+00
 cg2d: Sum(rhs),rhsMax =  -9.11669744141363E-08  9.50618583284504E+00
 cg2d: Sum(rhs),rhsMax =  -9.11656883317846E-08  9.50632606101357E+00
 cg2d: Sum(rhs),rhsMax =  -9.11643525114414E-08  9.50645090757042E+00
 cg2d: Sum(rhs),rhsMax =  -9.11635567035773E-08  9.50654729113363E+00
 cg2d: Sum(rhs),rhsMax =  -9.11632938027651E-08  9.50660334354173E+00
 cg2d: Sum(rhs),rhsMax =  -9.11633009081925E-08  9.50660868062301E+00
 cg2d: Sum(rhs),rhsMax =  -9.11639332912273E-08  9.50655462562515E+00
 cg2d: Sum(rhs),rhsMax =  -9.11649706836215E-08  9.50643436311089E+00
 cg2d: Sum(rhs),rhsMax =  -9.11672302095212E-08  9.50624304674150E+00
 cg2d: Sum(rhs),rhsMax =  -9.11696460548228E-08  9.50597781905916E+00
 cg2d: Sum(rhs),rhsMax =  -9.11727440211507E-08  9.50563777710892E+00
 cg2d: Sum(rhs),rhsMax =  -9.11770854372662E-08  9.50522393135291E+00
 cg2d: Sum(rhs),rhsMax =  -9.11816186999204E-08  9.50473911463816E+00
 cg2d: Sum(rhs),rhsMax =  -9.11870614572763E-08  9.50418773930678E+00
 cg2d: Sum(rhs),rhsMax =  -9.11928168534359E-08  9.50357558691374E+00
 cg2d: Sum(rhs),rhsMax =  -9.11992827923314E-08  9.50290964447458E+00
 cg2d: Sum(rhs),rhsMax =  -9.12065729608003E-08  9.50219791542795E+00
 cg2d: Sum(rhs),rhsMax =  -9.12139270781154E-08  9.50144918276843E+00
 cg2d: Sum(rhs),rhsMax =  -9.12212811954305E-08  9.50067274580360E+00
 cg2d: Sum(rhs),rhsMax =  -9.12293955934729E-08  9.49987815929010E+00
 cg2d: Sum(rhs),rhsMax =  -9.12369131356172E-08  9.49907498366882E+00
 cg2d: Sum(rhs),rhsMax =  -9.12447788437021E-08  9.49827255755378E+00
 cg2d: Sum(rhs),rhsMax =  -9.12528008711888E-08  9.49747978836020E+00
 cg2d: Sum(rhs),rhsMax =  -9.12602686753416E-08  9.49670496341604E+00
 cg2d: Sum(rhs),rhsMax =  -9.12679780640246E-08  9.49595558374171E+00
 cg2d: Sum(rhs),rhsMax =  -9.12747850634332E-08  9.49523821505845E+00
 cg2d: Sum(rhs),rhsMax =  -9.12811941589098E-08  9.49455836839740E+00
 cg2d: Sum(rhs),rhsMax =  -9.12878306280618E-08  9.49392042323925E+00
 cg2d: Sum(rhs),rhsMax =  -9.12937139219139E-08  9.49332754785973E+00
 cg2d: Sum(rhs),rhsMax =  -9.12992632606802E-08  9.49278165465699E+00
 cg2d: Sum(rhs),rhsMax =  -9.13035833605136E-08  9.49228339433203E+00
 cg2d: Sum(rhs),rhsMax =  -9.13086424247922E-08  9.49183218209292E+00
 cg2d: Sum(rhs),rhsMax =  -9.13127422563775E-08  9.49142625728328E+00
 cg2d: Sum(rhs),rhsMax =  -9.13163518134752E-08  9.49106276286301E+00
 cg2d: Sum(rhs),rhsMax =  -9.13194782015125E-08  9.49073783789306E+00
 cg2d: Sum(rhs),rhsMax =  -9.13225406407037E-08  9.49044672400271E+00
 cg2d: Sum(rhs),rhsMax =  -9.13253046519458E-08  9.49018390323782E+00
 EXTERNAL_FIELDS_LOAD, it=   3600330 : Reading new data, i0,i1=    6    7 (prev=    5    6 )
 DIC_FIELDS_LOAD, it=   3600330 : Reading new data, i0,i1=    6    7 (prev=    5    6 )
 cg2d: Sum(rhs),rhsMax =  -9.13276210212643E-08  9.48994325700856E+00
 cg2d: Sum(rhs),rhsMax =  -9.13303352945150E-08  9.48970801758053E+00
 cg2d: Sum(rhs),rhsMax =  -9.13328221940901E-08  9.48946471682098E+00
 cg2d: Sum(rhs),rhsMax =  -9.13353943587936E-08  9.48919980375378E+00
 cg2d: Sum(rhs),rhsMax =  -9.13383644274290E-08  9.48889996251626E+00
 cg2d: Sum(rhs),rhsMax =  -9.13418460868343E-08  9.48855235316500E+00
 cg2d: Sum(rhs),rhsMax =  -9.13461093432488E-08  9.48814487205053E+00
 cg2d: Sum(rhs),rhsMax =  -9.13508344524416E-08  9.48766639266868E+00
 cg2d: Sum(rhs),rhsMax =  -9.13563624749258E-08  9.48710698236420E+00
 cg2d: Sum(rhs),rhsMax =  -9.13624518261713E-08  9.48645808347463E+00
 cg2d: Sum(rhs),rhsMax =  -9.13698130489138E-08  9.48571268422533E+00
 cg2d: Sum(rhs),rhsMax =  -9.13783111400335E-08  9.48486545850383E+00
 cg2d: Sum(rhs),rhsMax =  -9.13876760932908E-08  9.48391285858374E+00
 cg2d: Sum(rhs),rhsMax =  -9.13977800109933E-08  9.48285315351105E+00
 cg2d: Sum(rhs),rhsMax =  -9.14093334358768E-08  9.48168641391458E+00
 cg2d: Sum(rhs),rhsMax =  -9.14215760872139E-08  9.48041445516485E+00
 cg2d: Sum(rhs),rhsMax =  -9.14348703418000E-08  9.47904073781749E+00
 cg2d: Sum(rhs),rhsMax =  -9.14490314585237E-08  9.47757022510765E+00
 cg2d: Sum(rhs),rhsMax =  -9.14641802296501E-08  9.47600920384239E+00
 cg2d: Sum(rhs),rhsMax =  -9.14802384954783E-08  9.47436507523804E+00
 cg2d: Sum(rhs),rhsMax =  -9.14970428311790E-08  9.47264612546539E+00
 cg2d: Sum(rhs),rhsMax =  -9.15143658630768E-08  9.47086128598380E+00
 cg2d: Sum(rhs),rhsMax =  -9.15317244221114E-08  9.46901988541289E+00
 cg2d: Sum(rhs),rhsMax =  -9.15503548526431E-08  9.46713139755286E+00
 cg2d: Sum(rhs),rhsMax =  -9.15688005420634E-08  9.46520519129246E+00
 cg2d: Sum(rhs),rhsMax =  -9.15879354579374E-08  9.46325027783096E+00
 cg2d: Sum(rhs),rhsMax =  -9.16070561629567E-08  9.46127510172983E+00
 cg2d: Sum(rhs),rhsMax =  -9.16269016215665E-08  9.45928736176468E+00
 cg2d: Sum(rhs),rhsMax =  -9.16458375854745E-08  9.45729384446051E+00
 cg2d: Sum(rhs),rhsMax =  -9.16652354021608E-08  9.45530032221759E+00
 cg2d: Sum(rhs),rhsMax =  -9.16847469056847E-08  9.45331147339530E+00
 cg2d: Sum(rhs),rhsMax =  -9.17041660386531E-08  9.45133082537812E+00
 cg2d: Sum(rhs),rhsMax =  -9.17234714847837E-08  9.44936073119909E+00
 cg2d: Sum(rhs),rhsMax =  -9.17423008672813E-08  9.44740238220463E+00
 cg2d: Sum(rhs),rhsMax =  -9.17614002560185E-08  9.44545585645758E+00
 cg2d: Sum(rhs),rhsMax =  -9.17801870059520E-08  9.44352020252140E+00
 cg2d: Sum(rhs),rhsMax =  -9.17989737558855E-08  9.44159355733174E+00
 cg2d: Sum(rhs),rhsMax =  -9.18179097197935E-08  9.43967327626014E+00
 cg2d: Sum(rhs),rhsMax =  -9.18367177860091E-08  9.43775607395104E+00
 cg2d: Sum(rhs),rhsMax =  -9.18552629514124E-08  9.43583817490269E+00
 cg2d: Sum(rhs),rhsMax =  -9.18742912858761E-08  9.43391546318717E+00
 cg2d: Sum(rhs),rhsMax =  -9.18933977800407E-08  9.43198362529795E+00
 cg2d: Sum(rhs),rhsMax =  -9.19123053222393E-08  9.43003828806143E+00
 cg2d: Sum(rhs),rhsMax =  -9.19319091963189E-08  9.42807514245689E+00
 cg2d: Sum(rhs),rhsMax =  -9.19516196518089E-08  9.42609005034801E+00
 cg2d: Sum(rhs),rhsMax =  -9.19711453661876E-08  9.42407914155286E+00
 cg2d: Sum(rhs),rhsMax =  -9.19916374186869E-08  9.42203890101561E+00
 cg2d: Sum(rhs),rhsMax =  -9.20122005254598E-08  9.41996625280574E+00
 cg2d: Sum(rhs),rhsMax =  -9.20328773190704E-08  9.41785862954787E+00
 cg2d: Sum(rhs),rhsMax =  -9.20541722848611E-08  9.41571402403211E+00
 cg2d: Sum(rhs),rhsMax =  -9.20761920042423E-08  9.41353104362712E+00
 cg2d: Sum(rhs),rhsMax =  -9.20975224971698E-08  9.41130897700722E+00
 cg2d: Sum(rhs),rhsMax =  -9.21202243375774E-08  9.40904782014454E+00
 cg2d: Sum(rhs),rhsMax =  -9.21427556477283E-08  9.40674826682519E+00
 cg2d: Sum(rhs),rhsMax =  -9.21658624974953E-08  9.40441167656376E+00
 cg2d: Sum(rhs),rhsMax =  -9.21897651551262E-08  9.40204003109270E+00
 cg2d: Sum(rhs),rhsMax =  -9.22136393910478E-08  9.39963588692061E+00
 cg2d: Sum(rhs),rhsMax =  -9.22377765277815E-08  9.39720232327049E+00
 cg2d: Sum(rhs),rhsMax =  -9.22617147125493E-08  9.39474287623570E+00
 cg2d: Sum(rhs),rhsMax =  -9.22866476571471E-08  9.39226147078604E+00
 EXTERNAL_FIELDS_LOAD, it=   3600390 : Reading new data, i0,i1=    7    8 (prev=    6    7 )
 DIC_FIELDS_LOAD, it=   3600390 : Reading new data, i0,i1=    7    8 (prev=    6    7 )
 cg2d: Sum(rhs),rhsMax =  -9.23120353490958E-08  9.38976233427929E+00
 cg2d: Sum(rhs),rhsMax =  -9.23369185557021E-08  9.38724381347799E+00
 cg2d: Sum(rhs),rhsMax =  -9.23620930848301E-08  9.38470550458213E+00
 cg2d: Sum(rhs),rhsMax =  -9.23878431535741E-08  9.38214640732935E+00
 cg2d: Sum(rhs),rhsMax =  -9.24133303215058E-08  9.37956498127073E+00
 cg2d: Sum(rhs),rhsMax =  -9.24395564538827E-08  9.37695924403383E+00
 cg2d: Sum(rhs),rhsMax =  -9.24659673273709E-08  9.37432689628576E+00
 cg2d: Sum(rhs),rhsMax =  -9.24926268908166E-08  9.37166545130188E+00
 cg2d: Sum(rhs),rhsMax =  -9.25199330481519E-08  9.36897236493602E+00
 cg2d: Sum(rhs),rhsMax =  -9.25472107837777E-08  9.36624514198210E+00
 cg2d: Sum(rhs),rhsMax =  -9.25749148450450E-08  9.36348144222541E+00
 cg2d: Sum(rhs),rhsMax =  -9.26027894365689E-08  9.36067916467522E+00
 cg2d: Sum(rhs),rhsMax =  -9.26316801042049E-08  9.35783651518778E+00
 cg2d: Sum(rhs),rhsMax =  -9.26604357687211E-08  9.35495205473915E+00
 cg2d: Sum(rhs),rhsMax =  -9.26899872411013E-08  9.35202472862356E+00
 cg2d: Sum(rhs),rhsMax =  -9.27198087197212E-08  9.34905386050751E+00
 cg2d: Sum(rhs),rhsMax =  -9.27502270542391E-08  9.34603912446753E+00
 cg2d: Sum(rhs),rhsMax =  -9.27809580275607E-08  9.34298052032945E+00
 cg2d: Sum(rhs),rhsMax =  -9.28122148025068E-08  9.33987837125357E+00
 cg2d: Sum(rhs),rhsMax =  -9.28438836922396E-08  9.33673332003228E+00
 cg2d: Sum(rhs),rhsMax =  -9.28756591633828E-08  9.33354631509102E+00
 cg2d: Sum(rhs),rhsMax =  -9.29085999246126E-08  9.33031856217985E+00
 cg2d: Sum(rhs),rhsMax =  -9.29414056827227E-08  9.32705144157814E+00
 cg2d: Sum(rhs),rhsMax =  -9.29742824951063E-08  9.32374640924821E+00
 cg2d: Sum(rhs),rhsMax =  -9.30079835370634E-08  9.32040491207867E+00
 cg2d: Sum(rhs),rhsMax =  -9.30417982658582E-08  9.31702830536998E+00
 cg2d: Sum(rhs),rhsMax =  -9.30764798567907E-08  9.31361778906816E+00
 cg2d: Sum(rhs),rhsMax =  -9.31104011669959E-08  9.31017435680010E+00
 cg2d: Sum(rhs),rhsMax =  -9.31454593455783E-08  9.30669874783390E+00
 cg2d: Sum(rhs),rhsMax =  -9.31809367443748E-08  9.30319140183628E+00
 cg2d: Sum(rhs),rhsMax =  -9.32159238686836E-08  9.29965242032067E+00
 cg2d: Sum(rhs),rhsMax =  -9.32518702256857E-08  9.29608155387300E+00
 cg2d: Sum(rhs),rhsMax =  -9.32883352788849E-08  9.29247816276956E+00
 cg2d: Sum(rhs),rhsMax =  -9.33245232204172E-08  9.28884120452690E+00
 cg2d: Sum(rhs),rhsMax =  -9.33613577558390E-08  9.28516924951164E+00
 cg2d: Sum(rhs),rhsMax =  -9.33982562401070E-08  9.28146051649491E+00
 cg2d: Sum(rhs),rhsMax =  -9.34364479121541E-08  9.27771291851975E+00
 cg2d: Sum(rhs),rhsMax =  -9.34740143065937E-08  9.27392411497484E+00
 cg2d: Sum(rhs),rhsMax =  -9.35126251988549E-08  9.27009157616147E+00
 cg2d: Sum(rhs),rhsMax =  -9.35518329470142E-08  9.26621266064052E+00
 cg2d: Sum(rhs),rhsMax =  -9.35912964905583E-08  9.26228469753356E+00
 cg2d: Sum(rhs),rhsMax =  -9.36311082000429E-08  9.25830502540661E+00
 cg2d: Sum(rhs),rhsMax =  -9.36718080879473E-08  9.25427104022615E+00
 cg2d: Sum(rhs),rhsMax =  -9.37130835154676E-08  9.25018025806528E+00
 cg2d: Sum(rhs),rhsMax =  -9.37547639523473E-08  9.24603037476154E+00
 cg2d: Sum(rhs),rhsMax =  -9.37974888870485E-08  9.24181932462259E+00
 cg2d: Sum(rhs),rhsMax =  -9.38402919814507E-08  9.23754533703139E+00
 cg2d: Sum(rhs),rhsMax =  -9.38843172093584E-08  9.23320698439808E+00
 cg2d: Sum(rhs),rhsMax =  -9.39290814017113E-08  9.22880321317793E+00
 cg2d: Sum(rhs),rhsMax =  -9.39739734917566E-08  9.22433335164241E+00
 cg2d: Sum(rhs),rhsMax =  -9.40200521881707E-08  9.21979710173837E+00
 cg2d: Sum(rhs),rhsMax =  -9.40667135296280E-08  9.21519452384442E+00
 cg2d: Sum(rhs),rhsMax =  -9.41140712029664E-08  9.21052602027441E+00
 cg2d: Sum(rhs),rhsMax =  -9.41621181027585E-08  9.20579231856880E+00
 cg2d: Sum(rhs),rhsMax =  -9.42108115964402E-08  9.20099445172383E+00
 cg2d: Sum(rhs),rhsMax =  -9.42603506359774E-08  9.19613373409314E+00
 cg2d: Sum(rhs),rhsMax =  -9.43106570616692E-08  9.19121172891709E+00
 cg2d: Sum(rhs),rhsMax =  -9.43619582471911E-08  9.18623021276131E+00
 cg2d: Sum(rhs),rhsMax =  -9.44129254776271E-08  9.18119115032627E+00
 cg2d: Sum(rhs),rhsMax =  -9.44648874678933E-08  9.17609666859133E+00
 EXTERNAL_FIELDS_LOAD, it=   3600450 : Reading new data, i0,i1=    8    9 (prev=    7    8 )
 DIC_FIELDS_LOAD, it=   3600450 : Reading new data, i0,i1=    8    9 (prev=    7    8 )
 cg2d: Sum(rhs),rhsMax =  -9.45180929079470E-08  9.17094900539886E+00
 cg2d: Sum(rhs),rhsMax =  -9.45713196642828E-08  9.16576037761048E+00
 cg2d: Sum(rhs),rhsMax =  -9.46249869571147E-08  9.16053907873528E+00
 cg2d: Sum(rhs),rhsMax =  -9.46787679367844E-08  9.15529303788953E+00
 cg2d: Sum(rhs),rhsMax =  -9.47327123412833E-08  9.15002961005962E+00
 cg2d: Sum(rhs),rhsMax =  -9.47873814993727E-08  9.14475542293395E+00
 cg2d: Sum(rhs),rhsMax =  -9.48415888046839E-08  9.13947626776025E+00
 cg2d: Sum(rhs),rhsMax =  -9.48963148061921E-08  9.13419703804716E+00
 cg2d: Sum(rhs),rhsMax =  -9.49505718494947E-08  9.12892171232682E+00
 cg2d: Sum(rhs),rhsMax =  -9.50055820680973E-08  9.12365335338700E+00
 cg2d: Sum(rhs),rhsMax =  -9.50602441207593E-08  9.11839411243203E+00
 cg2d: Sum(rhs),rhsMax =  -9.51149274897034E-08  9.11314523538299E+00
 cg2d: Sum(rhs),rhsMax =  -9.51689713701853E-08  9.10790707134369E+00
 cg2d: Sum(rhs),rhsMax =  -9.52241663298992E-08  9.10267908920085E+00
 cg2d: Sum(rhs),rhsMax =  -9.52785583763216E-08  9.09745990818067E+00
 cg2d: Sum(rhs),rhsMax =  -9.53332346398383E-08  9.09224734512777E+00
 cg2d: Sum(rhs),rhsMax =  -9.53879322196372E-08  9.08703847736888E+00
 cg2d: Sum(rhs),rhsMax =  -9.54423811094784E-08  9.08182972075513E+00
 cg2d: Sum(rhs),rhsMax =  -9.54974623823546E-08  9.07661692347198E+00
 cg2d: Sum(rhs),rhsMax =  -9.55527141854873E-08  9.07139547821490E+00
 cg2d: Sum(rhs),rhsMax =  -9.56078878289190E-08  9.06616045270155E+00
 cg2d: Sum(rhs),rhsMax =  -9.56632462134621E-08  9.06090673305150E+00
 cg2d: Sum(rhs),rhsMax =  -9.57190593453561E-08  9.05562917574046E+00
 cg2d: Sum(rhs),rhsMax =  -9.57753982788745E-08  9.05032276301453E+00
 cg2d: Sum(rhs),rhsMax =  -9.58323127520089E-08  9.04498274779792E+00
 cg2d: Sum(rhs),rhsMax =  -9.58890566948867E-08  9.03960479010611E+00
 cg2d: Sum(rhs),rhsMax =  -9.59469090844323E-08  9.03418508103277E+00
 cg2d: Sum(rhs),rhsMax =  -9.60046975251316E-08  9.02872044807494E+00
 cg2d: Sum(rhs),rhsMax =  -9.60634949365158E-08  9.02320843719522E+00
 cg2d: Sum(rhs),rhsMax =  -9.61234505325592E-08  9.01764736350553E+00
 cg2d: Sum(rhs),rhsMax =  -9.61829158541150E-08  9.01203632711249E+00
 cg2d: Sum(rhs),rhsMax =  -9.62436175200310E-08  9.00637519234014E+00
 cg2d: Sum(rhs),rhsMax =  -9.63047241953063E-08  9.00066454100738E+00
 cg2d: Sum(rhs),rhsMax =  -9.63663566722062E-08  8.99490560644289E+00
 cg2d: Sum(rhs),rhsMax =  -9.64286215321408E-08  8.98910019830229E+00
 cg2d: Sum(rhs),rhsMax =  -9.64914832479735E-08  8.98325060608421E+00
 cg2d: Sum(rhs),rhsMax =  -9.65549631359863E-08  8.97735949860674E+00
 cg2d: Sum(rhs),rhsMax =  -9.66191180395981E-08  8.97142982445055E+00
 cg2d: Sum(rhs),rhsMax =  -9.66832942594920E-08  8.96546471599943E+00
 cg2d: Sum(rhs),rhsMax =  -9.67482520763951E-08  8.95946740124540E+00
 cg2d: Sum(rhs),rhsMax =  -9.68132098932983E-08  8.95344112713886E+00
 cg2d: Sum(rhs),rhsMax =  -9.68790274669118E-08  8.94738909112794E+00
 cg2d: Sum(rhs),rhsMax =  -9.69447810916790E-08  8.94131438207753E+00
 cg2d: Sum(rhs),rhsMax =  -9.70111884157632E-08  8.93521991327319E+00
 cg2d: Sum(rhs),rhsMax =  -9.70773115227530E-08  8.92910833888471E+00
 cg2d: Sum(rhs),rhsMax =  -9.71445075492738E-08  8.92298199747039E+00
 cg2d: Sum(rhs),rhsMax =  -9.72113554098541E-08  8.91684290726808E+00
 cg2d: Sum(rhs),rhsMax =  -9.72787574937684E-08  8.91069264633776E+00
 cg2d: Sum(rhs),rhsMax =  -9.73459535202892E-08  8.90453228797114E+00
 cg2d: Sum(rhs),rhsMax =  -9.74135971887335E-08  8.89836249714105E+00
 cg2d: Sum(rhs),rhsMax =  -9.74817027099562E-08  8.89218368115518E+00
 cg2d: Sum(rhs),rhsMax =  -9.75496519117769E-08  8.88599608996445E+00
 cg2d: Sum(rhs),rhsMax =  -9.76179350686834E-08  8.87979980032782E+00
 cg2d: Sum(rhs),rhsMax =  -9.76860476953334E-08  8.87359466021019E+00
 cg2d: Sum(rhs),rhsMax =  -9.77549490244201E-08  8.86737992136571E+00
 cg2d: Sum(rhs),rhsMax =  -9.78237792992331E-08  8.86115449881272E+00
 cg2d: Sum(rhs),rhsMax =  -9.78925882577641E-08  8.85491714939279E+00
 cg2d: Sum(rhs),rhsMax =  -9.79620651264668E-08  8.84866650814923E+00
 cg2d: Sum(rhs),rhsMax =  -9.80318830556826E-08  8.84239908862083E+00
 cg2d: Sum(rhs),rhsMax =  -9.81016583523342E-08  8.83611205511795E+00
 EXTERNAL_FIELDS_LOAD, it=   3600510 : Reading new data, i0,i1=    9   10 (prev=    8    9 )
 DIC_FIELDS_LOAD, it=   3600510 : Reading new data, i0,i1=    9   10 (prev=    8    9 )
 cg2d: Sum(rhs),rhsMax =  -9.81721868242857E-08  8.82980306034887E+00
 cg2d: Sum(rhs),rhsMax =  -9.82427721396562E-08  8.82347164349139E+00
 cg2d: Sum(rhs),rhsMax =  -9.83135990395567E-08  8.81711735596894E+00
 cg2d: Sum(rhs),rhsMax =  -9.83851720093298E-08  8.81074020360017E+00
 cg2d: Sum(rhs),rhsMax =  -9.84564962891454E-08  8.80434063629974E+00
 cg2d: Sum(rhs),rhsMax =  -9.85286376931072E-08  8.79791959804717E+00
 cg2d: Sum(rhs),rhsMax =  -9.86011414738641E-08  8.79147850051498E+00
 cg2d: Sum(rhs),rhsMax =  -9.86734960406466E-08  8.78501923806664E+00
 cg2d: Sum(rhs),rhsMax =  -9.87464900958912E-08  8.77854412431977E+00
 cg2d: Sum(rhs),rhsMax =  -9.88197470519481E-08  8.77205585109022E+00
 cg2d: Sum(rhs),rhsMax =  -9.88934729662105E-08  8.76555740298602E+00
 cg2d: Sum(rhs),rhsMax =  -9.89669146633787E-08  8.75905198910442E+00
 cg2d: Sum(rhs),rhsMax =  -9.90407258427695E-08  8.75254295465281E+00
 cg2d: Sum(rhs),rhsMax =  -9.91145014950234E-08  8.74603368964057E+00
 cg2d: Sum(rhs),rhsMax =  -9.91886466295000E-08  8.73952755244439E+00
 cg2d: Sum(rhs),rhsMax =  -9.92623157003436E-08  8.73302782624689E+00
 cg2d: Sum(rhs),rhsMax =  -9.93363400425551E-08  8.72653766294564E+00
 cg2d: Sum(rhs),rhsMax =  -9.94104141227581E-08  8.72006002219781E+00
 cg2d: Sum(rhs),rhsMax =  -9.94844668866790E-08  8.71359759621992E+00
 cg2d: Sum(rhs),rhsMax =  -9.95583775420528E-08  8.70715278372291E+00
 cg2d: Sum(rhs),rhsMax =  -9.96322597757171E-08  8.70072771032166E+00
 cg2d: Sum(rhs),rhsMax =  -9.97059714791249E-08  8.69432422374462E+00
 cg2d: Sum(rhs),rhsMax =  -9.97792923840279E-08  8.68794392220557E+00
 cg2d: Sum(rhs),rhsMax =  -9.98527127649140E-08  8.68159287495532E+00
 cg2d: Sum(rhs),rhsMax =  -9.99256144496030E-08  8.67527594836007E+00
 cg2d: Sum(rhs),rhsMax =  -9.99983740257449E-08  8.66899648662334E+00
 cg2d: Sum(rhs),rhsMax =  -1.00070764119664E-07  8.66275674813775E+00
 cg2d: Sum(rhs),rhsMax =  -1.00142791836788E-07  8.65655808426570E+00
 cg2d: Sum(rhs),rhsMax =  -1.00214123222031E-07  8.65040095427649E+00
 cg2d: Sum(rhs),rhsMax =  -1.00285419080137E-07  8.64428511771589E+00
 cg2d: Sum(rhs),rhsMax =  -1.00356203347474E-07  8.63820779072895E+00
 cg2d: Sum(rhs),rhsMax =  -1.00426881033400E-07  8.63216610266613E+00
 cg2d: Sum(rhs),rhsMax =  -1.00497182131676E-07  8.62615664857018E+00
 cg2d: Sum(rhs),rhsMax =  -1.00566929006618E-07  8.62017549344574E+00
 cg2d: Sum(rhs),rhsMax =  -1.00636839306389E-07  8.61421824973427E+00
 cg2d: Sum(rhs),rhsMax =  -1.00706515127058E-07  8.60828014305759E+00
 cg2d: Sum(rhs),rhsMax =  -1.00776318845419E-07  8.60235619466164E+00
 cg2d: Sum(rhs),rhsMax =  -1.00845916506387E-07  8.59644141396147E+00
 cg2d: Sum(rhs),rhsMax =  -1.00915485745645E-07  8.59053104903554E+00
 cg2d: Sum(rhs),rhsMax =  -1.00985261042297E-07  8.58462072248315E+00
 cg2d: Sum(rhs),rhsMax =  -1.01055491086299E-07  8.57870663714626E+00
 cg2d: Sum(rhs),rhsMax =  -1.01125422702353E-07  8.57278566865890E+00
 cg2d: Sum(rhs),rhsMax =  -1.01195716695202E-07  8.56685532083521E+00
 cg2d: Sum(rhs),rhsMax =  -1.01266216745444E-07  8.56091374139585E+00
 cg2d: Sum(rhs),rhsMax =  -1.01337192859319E-07  8.55495975914983E+00
 cg2d: Sum(rhs),rhsMax =  -1.01408346608878E-07  8.54899275863313E+00
 cg2d: Sum(rhs),rhsMax =  -1.01479535885574E-07  8.54301265247851E+00
 cg2d: Sum(rhs),rhsMax =  -1.01551435705005E-07  8.53701978569626E+00
 cg2d: Sum(rhs),rhsMax =  -1.01622724457684E-07  8.53101490472480E+00
 cg2d: Sum(rhs),rhsMax =  -1.01695292187287E-07  8.52499919193590E+00
 cg2d: Sum(rhs),rhsMax =  -1.01767554383514E-07  8.51897431341724E+00
 cg2d: Sum(rhs),rhsMax =  -1.01840242905382E-07  8.51294235247767E+00
 cg2d: Sum(rhs),rhsMax =  -1.01912846162122E-07  8.50690569200869E+00
 cg2d: Sum(rhs),rhsMax =  -1.01985413891725E-07  8.50087005576702E+00
 cg2d: Sum(rhs),rhsMax =  -1.02058450579534E-07  8.49484015017416E+00
 cg2d: Sum(rhs),rhsMax =  -1.02131188839394E-07  8.48882063673028E+00
 cg2d: Sum(rhs),rhsMax =  -1.02203856044980E-07  8.48281607441673E+00
 cg2d: Sum(rhs),rhsMax =  -1.02276672464541E-07  8.47683086082370E+00
 cg2d: Sum(rhs),rhsMax =  -1.02349595465512E-07  8.47086915096995E+00
 cg2d: Sum(rhs),rhsMax =  -1.02421360281824E-07  8.46493476809303E+00
 EXTERNAL_FIELDS_LOAD, it=   3600570 : Reading new data, i0,i1=   10   11 (prev=    9   10 )
 DIC_FIELDS_LOAD, it=   3600570 : Reading new data, i0,i1=   10   11 (prev=    9   10 )
 cg2d: Sum(rhs),rhsMax =  -1.02493515896640E-07  8.45903109783263E+00
 cg2d: Sum(rhs),rhsMax =  -1.02564975179575E-07  8.45319648993583E+00
 cg2d: Sum(rhs),rhsMax =  -1.02634501786270E-07  8.44745634270964E+00
 cg2d: Sum(rhs),rhsMax =  -1.02703893389844E-07  8.44183524325516E+00
 cg2d: Sum(rhs),rhsMax =  -1.02770819410125E-07  8.43635626330932E+00
 cg2d: Sum(rhs),rhsMax =  -1.02836231974379E-07  8.43104036727980E+00
 cg2d: Sum(rhs),rhsMax =  -1.02899214482477E-07  8.42590597581903E+00
 cg2d: Sum(rhs),rhsMax =  -1.02960150627496E-07  8.42096861540595E+00
 cg2d: Sum(rhs),rhsMax =  -1.03018727770632E-07  8.41624063283881E+00
 cg2d: Sum(rhs),rhsMax =  -1.03074462742825E-07  8.41173099284368E+00
 cg2d: Sum(rhs),rhsMax =  -1.03127582917750E-07  8.40744522364360E+00
 cg2d: Sum(rhs),rhsMax =  -1.03177704602331E-07  8.40338548638234E+00
 cg2d: Sum(rhs),rhsMax =  -1.03225289649345E-07  8.39955071057647E+00
 cg2d: Sum(rhs),rhsMax =  -1.03270444640202E-07  8.39593686353065E+00
 cg2d: Sum(rhs),rhsMax =  -1.03312800092681E-07  8.39253726007720E+00
 cg2d: Sum(rhs),rhsMax =  -1.03352554958747E-07  8.38934286490718E+00
 cg2d: Sum(rhs),rhsMax =  -1.03389886874083E-07  8.38634267692018E+00
 cg2d: Sum(rhs),rhsMax =  -1.03425186637196E-07  8.38352418466840E+00
 cg2d: Sum(rhs),rhsMax =  -1.03458575040349E-07  8.38087384792736E+00
 cg2d: Sum(rhs),rhsMax =  -1.03489654179612E-07  8.37837764295235E+00
 cg2d: Sum(rhs),rhsMax =  -1.03519347760539E-07  8.37602165023152E+00
 cg2d: Sum(rhs),rhsMax =  -1.03547364460610E-07  8.37379265495454E+00
 cg2d: Sum(rhs),rhsMax =  -1.03573896126363E-07  8.37167859305842E+00
 cg2d: Sum(rhs),rhsMax =  -1.03599155920620E-07  8.36966841617237E+00
 cg2d: Sum(rhs),rhsMax =  -1.03623357006200E-07  8.36775262363169E+00
 cg2d: Sum(rhs),rhsMax =  -1.03646584648232E-07  8.36592322530019E+00
 cg2d: Sum(rhs),rhsMax =  -1.03668426731929E-07  8.36417370361670E+00
 cg2d: Sum(rhs),rhsMax =  -1.03689806962848E-07  8.36249893566327E+00
 cg2d: Sum(rhs),rhsMax =  -1.03710164012227E-07  8.36089512198643E+00
 cg2d: Sum(rhs),rhsMax =  -1.03729064448999E-07  8.35935972193128E+00
 cg2d: Sum(rhs),rhsMax =  -1.03747986202052E-07  8.35789132052859E+00
 cg2d: Sum(rhs),rhsMax =  -1.03765373182796E-07  8.35648953984663E+00
 cg2d: Sum(rhs),rhsMax =  -1.03782369365035E-07  8.35515503666620E+00
 cg2d: Sum(rhs),rhsMax =  -1.03798733164240E-07  8.35388959337713E+00
 cg2d: Sum(rhs),rhsMax =  -1.03813491136862E-07  8.35269612989214E+00
 cg2d: Sum(rhs),rhsMax =  -1.03827638042731E-07  8.35157865319166E+00
 cg2d: Sum(rhs),rhsMax =  -1.03841280463257E-07  8.35054220321588E+00
 cg2d: Sum(rhs),rhsMax =  -1.03853331268056E-07  8.34959282244478E+00
 cg2d: Sum(rhs),rhsMax =  -1.03864024936229E-07  8.34873757212784E+00
 cg2d: Sum(rhs),rhsMax =  -1.03873794898846E-07  8.34798443944571E+00
 cg2d: Sum(rhs),rhsMax =  -1.03881951929452E-07  8.34734205444848E+00
 cg2d: Sum(rhs),rhsMax =  -1.03888730507151E-07  8.34681927427749E+00
 cg2d: Sum(rhs),rhsMax =  -1.03893782466002E-07  8.34642479662444E+00
 cg2d: Sum(rhs),rhsMax =  -1.03896695691219E-07  8.34616690162161E+00
 cg2d: Sum(rhs),rhsMax =  -1.03898251779810E-07  8.34605328416144E+00
 cg2d: Sum(rhs),rhsMax =  -1.03897747294468E-07  8.34609086201575E+00
 cg2d: Sum(rhs),rhsMax =  -1.03895416714295E-07  8.34628560159372E+00
 cg2d: Sum(rhs),rhsMax =  -1.03891132141598E-07  8.34664238294981E+00
 cg2d: Sum(rhs),rhsMax =  -1.03884730151549E-07  8.34716488141953E+00
 cg2d: Sum(rhs),rhsMax =  -1.03876232060429E-07  8.34785544920597E+00
 cg2d: Sum(rhs),rhsMax =  -1.03865339440290E-07  8.34871504733891E+00
 cg2d: Sum(rhs),rhsMax =  -1.03852393351644E-07  8.34974320296400E+00
 cg2d: Sum(rhs),rhsMax =  -1.03837578535604E-07  8.35093803633076E+00
 cg2d: Sum(rhs),rhsMax =  -1.03820866570459E-07  8.35229628921908E+00
 cg2d: Sum(rhs),rhsMax =  -1.03801575335183E-07  8.35381348895399E+00
 cg2d: Sum(rhs),rhsMax =  -1.03780770643880E-07  8.35548405560547E+00
 cg2d: Sum(rhs),rhsMax =  -1.03758168279455E-07  8.35730145035772E+00
 cg2d: Sum(rhs),rhsMax =  -1.03734052459004E-07  8.35925834161856E+00
 cg2d: Sum(rhs),rhsMax =  -1.03707641585515E-07  8.36134677020027E+00
 cg2d: Sum(rhs),rhsMax =  -1.03680264373907E-07  8.36355833544679E+00
 EXTERNAL_FIELDS_LOAD, it=   3600630 : Reading new data, i0,i1=   11   12 (prev=   10   11 )
 DIC_FIELDS_LOAD, it=   3600630 : Reading new data, i0,i1=   11   12 (prev=   10   11 )
 cg2d: Sum(rhs),rhsMax =  -1.03651167648877E-07  8.36588437297216E+00
 cg2d: Sum(rhs),rhsMax =  -1.03620983793462E-07  8.36829873825493E+00
 cg2d: Sum(rhs),rhsMax =  -1.03590167555012E-07  8.37078098256463E+00
 cg2d: Sum(rhs),rhsMax =  -1.03558832620365E-07  8.37331076990736E+00
 cg2d: Sum(rhs),rhsMax =  -1.03526986094948E-07  8.37586828475342E+00
 cg2d: Sum(rhs),rhsMax =  -1.03494969039275E-07  8.37843651347270E+00
 cg2d: Sum(rhs),rhsMax =  -1.03462959089029E-07  8.38100058596186E+00
 cg2d: Sum(rhs),rhsMax =  -1.03431759157502E-07  8.38354800119352E+00
 cg2d: Sum(rhs),rhsMax =  -1.03400431328282E-07  8.38606907281455E+00
 cg2d: Sum(rhs),rhsMax =  -1.03369536930131E-07  8.38855705740912E+00
 cg2d: Sum(rhs),rhsMax =  -1.03339182544460E-07  8.39100818777902E+00
 cg2d: Sum(rhs),rhsMax =  -1.03309091059600E-07  8.39342162927294E+00
 cg2d: Sum(rhs),rhsMax =  -1.03279326424399E-07  8.39579937673915E+00
 cg2d: Sum(rhs),rhsMax =  -1.03250158645096E-07  8.39814606298476E+00
 cg2d: Sum(rhs),rhsMax =  -1.03221587721691E-07  8.40046867037939E+00
 cg2d: Sum(rhs),rhsMax =  -1.03192640210636E-07  8.40277617859981E+00
 cg2d: Sum(rhs),rhsMax =  -1.03164317977189E-07  8.40507915533000E+00
 cg2d: Sum(rhs),rhsMax =  -1.03135583628955E-07  8.40738929078001E+00
 cg2d: Sum(rhs),rhsMax =  -1.03106465587643E-07  8.40971893982490E+00
 cg2d: Sum(rhs),rhsMax =  -1.03077603341717E-07  8.41208069021930E+00
 cg2d: Sum(rhs),rhsMax =  -1.03047760546815E-07  8.41448664736628E+00
 cg2d: Sum(rhs),rhsMax =  -1.03017328001442E-07  8.41694808963461E+00
 cg2d: Sum(rhs),rhsMax =  -1.02985850958248E-07  8.41947641344255E+00
 cg2d: Sum(rhs),rhsMax =  -1.02953762848301E-07  8.42209465677943E+00
 cg2d: Sum(rhs),rhsMax =  -1.02920779454507E-07  8.42481840011152E+00
 cg2d: Sum(rhs),rhsMax =  -1.02885756803062E-07  8.42766143831664E+00
 cg2d: Sum(rhs),rhsMax =  -1.02849760708068E-07  8.43063562227923E+00
 cg2d: Sum(rhs),rhsMax =  -1.02811505087175E-07  8.43375048923612E+00
 cg2d: Sum(rhs),rhsMax =  -1.02771743115682E-07  8.43701312183894E+00
 cg2d: Sum(rhs),rhsMax =  -1.02730268736195E-07  8.44042805498092E+00
 cg2d: Sum(rhs),rhsMax =  -1.02686364300553E-07  8.44399728026233E+00
 cg2d: Sum(rhs),rhsMax =  -1.02641237731405E-07  8.44772028674299E+00
 cg2d: Sum(rhs),rhsMax =  -1.02594057693750E-07  8.45159419183708E+00
 cg2d: Sum(rhs),rhsMax =  -1.02545079982974E-07  8.45561389463918E+00
 cg2d: Sum(rhs),rhsMax =  -1.02494418285914E-07  8.45977229544668E+00
 cg2d: Sum(rhs),rhsMax =  -1.02442626825905E-07  8.46406043486096E+00
 cg2d: Sum(rhs),rhsMax =  -1.02389186906748E-07  8.46846786249842E+00
 cg2d: Sum(rhs),rhsMax =  -1.02334411167249E-07  8.47298294092153E+00
 cg2d: Sum(rhs),rhsMax =  -1.02278569613645E-07  8.47759310010859E+00
 cg2d: Sum(rhs),rhsMax =  -1.02221783038203E-07  8.48228511495217E+00
 cg2d: Sum(rhs),rhsMax =  -1.02164435134000E-07  8.48704540520819E+00
 cg2d: Sum(rhs),rhsMax =  -1.02106639587873E-07  8.49186038102640E+00
 cg2d: Sum(rhs),rhsMax =  -1.02048161920720E-07  8.49671683330553E+00
 cg2d: Sum(rhs),rhsMax =  -1.01989222400789E-07  8.50160229731839E+00
 cg2d: Sum(rhs),rhsMax =  -1.01930119456028E-07  8.50650541756349E+00
 cg2d: Sum(rhs),rhsMax =  -1.01871734159431E-07  8.51141606286167E+00
 cg2d: Sum(rhs),rhsMax =  -1.01813114383731E-07  8.51632550458549E+00
 cg2d: Sum(rhs),rhsMax =  -1.01754352499484E-07  8.52122658728227E+00
 cg2d: Sum(rhs),rhsMax =  -1.01695938781177E-07  8.52611387363114E+00
 cg2d: Sum(rhs),rhsMax =  -1.01637908755947E-07  8.53098375482528E+00
 cg2d: Sum(rhs),rhsMax =  -1.01580091893538E-07  8.53583450654913E+00
 cg2d: Sum(rhs),rhsMax =  -1.01522516615660E-07  8.54066629803099E+00
 cg2d: Sum(rhs),rhsMax =  -1.01465325030858E-07  8.54548114840508E+00
 cg2d: Sum(rhs),rhsMax =  -1.01408510033707E-07  8.55028281355603E+00
 cg2d: Sum(rhs),rhsMax =  -1.01351844250530E-07  8.55507663782142E+00
 cg2d: Sum(rhs),rhsMax =  -1.01294901355686E-07  8.55986938569464E+00
 cg2d: Sum(rhs),rhsMax =  -1.01238242677937E-07  8.56466907941720E+00
 cg2d: Sum(rhs),rhsMax =  -1.01181711897880E-07  8.56948481849350E+00
 cg2d: Sum(rhs),rhsMax =  -1.01124427942523E-07  8.57432655386490E+00
 cg2d: Sum(rhs),rhsMax =  -1.01066994773191E-07  8.57920482306538E+00
 EXTERNAL_FIELDS_LOAD, it=   3600690 : Reading new data, i0,i1=   12    1 (prev=   11   12 )
 DIC_FIELDS_LOAD, it=   3600690 : Reading new data, i0,i1=   12    1 (prev=   11   12 )
 cg2d: Sum(rhs),rhsMax =  -1.01009099751082E-07  8.58413045456863E+00
 cg2d: Sum(rhs),rhsMax =  -1.00950970249869E-07  8.58908772075261E+00
 cg2d: Sum(rhs),rhsMax =  -1.00892201260194E-07  8.59407113784658E+00
 cg2d: Sum(rhs),rhsMax =  -1.00833979388426E-07  8.59907533504329E+00
 cg2d: Sum(rhs),rhsMax =  -1.00775366718153E-07  8.60409527812640E+00
 cg2d: Sum(rhs),rhsMax =  -1.00716533779632E-07  8.60912639608676E+00
 cg2d: Sum(rhs),rhsMax =  -1.00657807422522E-07  8.61416467727663E+00
 cg2d: Sum(rhs),rhsMax =  -1.00599194752249E-07  8.61920670304104E+00
 cg2d: Sum(rhs),rhsMax =  -1.00540219705181E-07  8.62424959025954E+00
 cg2d: Sum(rhs),rhsMax =  -1.00481713616318E-07  8.62929084710763E+00
 cg2d: Sum(rhs),rhsMax =  -1.00423278581729E-07  8.63432823431656E+00
 cg2d: Sum(rhs),rhsMax =  -1.00365085131671E-07  8.63935967110789E+00
 cg2d: Sum(rhs),rhsMax =  -1.00306984052168E-07  8.64438326330631E+00
 cg2d: Sum(rhs),rhsMax =  -1.00248698231553E-07  8.64939736363611E+00
 cg2d: Sum(rhs),rhsMax =  -1.00191144269957E-07  8.65440069908248E+00
 cg2d: Sum(rhs),rhsMax =  -1.00133568992078E-07  8.65939260929048E+00
 cg2d: Sum(rhs),rhsMax =  -1.00076100295610E-07  8.66437312037654E+00
 cg2d: Sum(rhs),rhsMax =  -1.00019036608501E-07  8.66934290835576E+00
 cg2d: Sum(rhs),rhsMax =  -9.99617597585711E-08  8.67430225124478E+00
 cg2d: Sum(rhs),rhsMax =  -9.99047102823170E-08  8.67925494682890E+00
 cg2d: Sum(rhs),rhsMax =  -9.98482363456787E-08  8.68420608713978E+00
 cg2d: Sum(rhs),rhsMax =  -9.97913716105359E-08  8.68916081980566E+00
 cg2d: Sum(rhs),rhsMax =  -9.97343434505638E-08  8.69412416784580E+00
 cg2d: Sum(rhs),rhsMax =  -9.96773295014464E-08  8.69910085245627E+00
 cg2d: Sum(rhs),rhsMax =  -9.96202871306195E-08  8.70409517445086E+00
 cg2d: Sum(rhs),rhsMax =  -9.95629250155616E-08  8.70911095741398E+00
 cg2d: Sum(rhs),rhsMax =  -9.95059110664442E-08  8.71415148969223E+00
 cg2d: Sum(rhs),rhsMax =  -9.94480160443345E-08  8.71921930590513E+00
 cg2d: Sum(rhs),rhsMax =  -9.93902702361993E-08  8.72431607432102E+00
 cg2d: Sum(rhs),rhsMax =  -9.93317215147727E-08  8.72944261226047E+00
 cg2d: Sum(rhs),rhsMax =  -9.92735280647139E-08  8.73459893266904E+00
 cg2d: Sum(rhs),rhsMax =  -9.92147448641845E-08  8.73978430818157E+00
 cg2d: Sum(rhs),rhsMax =  -9.91560966667748E-08  8.74499735837366E+00
 cg2d: Sum(rhs),rhsMax =  -9.90966526615011E-08  8.75023614706347E+00
 cg2d: Sum(rhs),rhsMax =  -9.90366970654577E-08  8.75549829188909E+00
 cg2d: Sum(rhs),rhsMax =  -9.89772743764661E-08  8.76078107848702E+00
 cg2d: Sum(rhs),rhsMax =  -9.89177024735000E-08  8.76608155580086E+00
 cg2d: Sum(rhs),rhsMax =  -9.88579742511320E-08  8.77139664107964E+00
 cg2d: Sum(rhs),rhsMax =  -9.87977060162848E-08  8.77672320795606E+00
 cg2d: Sum(rhs),rhsMax =  -9.87382264838743E-08  8.78205816635757E+00
(PID.TID 0000.0001) Did not write pickup because writePickupAtEnd = FALSE
 DIC_SURFFORCING_INIT, it=   3600000 : Reading new data, i0,i1=   12    1
 QQ: pCO2 approximation method
 QQ first guess pH 8.2869849781645275,  7.129213793781922,  34.1535348423009,  2.0282,  5.43799999999999991E-4,  8.08490416966378689E-3,  2.3086000000000002
(PID.TID 0000.0001) // =======================================================
(PID.TID 0000.0001) // Model current state
(PID.TID 0000.0001) // =======================================================
(PID.TID 0000.0001) 
 EXTERNAL_FIELDS_LOAD, it=   3600000 : Reading new data, i0,i1=   12    1 (prev=   12    0 )
 DIC_FIELDS_LOAD, it=   3600000 : Reading new data, i0,i1=   12    1 (prev=   12    0 )
 cg2d: Sum(rhs),rhsMax =  -9.92433868418630E-08  8.73439671821315E+00
 cg2d: Sum(rhs),rhsMax =  -9.91844260056496E-08  8.73957958587058E+00
 cg2d: Sum(rhs),rhsMax =  -9.91252449011881E-08  8.74478969091806E+00
 cg2d: Sum(rhs),rhsMax =  -9.90665185440776E-08  8.75002495477880E+00
 cg2d: Sum(rhs),rhsMax =  -9.90068542705558E-08  8.75528284057604E+00
 cg2d: Sum(rhs),rhsMax =  -9.89473534218632E-08  8.76056047500076E+00
 cg2d: Sum(rhs),rhsMax =  -9.88878241514612E-08  8.76585475900637E+00
 cg2d: Sum(rhs),rhsMax =  -9.88279893476829E-08  8.77116249138180E+00
 cg2d: Sum(rhs),rhsMax =  -9.87682469144602E-08  8.77648047471154E+00
 cg2d: Sum(rhs),rhsMax =  -9.87087602766223E-08  8.78180560756084E+00
 cg2d: Sum(rhs),rhsMax =  -9.86489112619893E-08  8.78713494778165E+00
 cg2d: Sum(rhs),rhsMax =  -9.85891404070571E-08  8.79246575399440E+00
 cg2d: Sum(rhs),rhsMax =  -9.85293340249882E-08  8.79779549299699E+00
 cg2d: Sum(rhs),rhsMax =  -9.84700747608258E-08  8.80312181092759E+00
 cg2d: Sum(rhs),rhsMax =  -9.84108581292276E-08  8.80844249631459E+00
 cg2d: Sum(rhs),rhsMax =  -9.83516486030567E-08  8.81375547068360E+00
 cg2d: Sum(rhs),rhsMax =  -9.82926522397065E-08  8.81905885446822E+00
 cg2d: Sum(rhs),rhsMax =  -9.82337553523394E-08  8.82435106608147E+00
 cg2d: Sum(rhs),rhsMax =  -9.81751568929212E-08  8.82963093738125E+00
 cg2d: Sum(rhs),rhsMax =  -9.81166650149135E-08  8.83489782452132E+00
 cg2d: Sum(rhs),rhsMax =  -9.80585213028462E-08  8.84015168145881E+00
 cg2d: Sum(rhs),rhsMax =  -9.80007470730015E-08  8.84539306572338E+00
 cg2d: Sum(rhs),rhsMax =  -9.79429586323022E-08  8.85062306296846E+00
 cg2d: Sum(rhs),rhsMax =  -9.78853904598509E-08  8.85584316140559E+00
 cg2d: Sum(rhs),rhsMax =  -9.78280425556477E-08  8.86105508303604E+00
 cg2d: Sum(rhs),rhsMax =  -9.77709291305473E-08  8.86626061391844E+00
 cg2d: Sum(rhs),rhsMax =  -9.77132472712583E-08  8.87146147123075E+00
 cg2d: Sum(rhs),rhsMax =  -9.76563327981239E-08  8.87665923110881E+00
 cg2d: Sum(rhs),rhsMax =  -9.75990843699037E-08  8.88185530584736E+00
 cg2d: Sum(rhs),rhsMax =  -9.75420704207863E-08  8.88705095973601E+00
 EXTERNAL_FIELDS_LOAD, it=   3600030 : Reading new data, i0,i1=    1    2 (prev=   12    1 )
 DIC_FIELDS_LOAD, it=   3600030 : Reading new data, i0,i1=    1    2 (prev=   12    1 )
 cg2d: Sum(rhs),rhsMax =  -9.74853406887632E-08  8.89224735691429E+00
 cg2d: Sum(rhs),rhsMax =  -9.74287814869967E-08  8.89742706375180E+00
 cg2d: Sum(rhs),rhsMax =  -9.73723857100595E-08  8.90258000132907E+00
 cg2d: Sum(rhs),rhsMax =  -9.73164659967551E-08  8.90769672951691E+00
 cg2d: Sum(rhs),rhsMax =  -9.72612284044772E-08  8.91276878246959E+00
 cg2d: Sum(rhs),rhsMax =  -9.72070637317302E-08  8.91778889429735E+00
 cg2d: Sum(rhs),rhsMax =  -9.71530482729577E-08  8.92275113682099E+00
 cg2d: Sum(rhs),rhsMax =  -9.70993241367069E-08  8.92765100404361E+00
 cg2d: Sum(rhs),rhsMax =  -9.70471916161841E-08  8.93248545016401E+00
 cg2d: Sum(rhs),rhsMax =  -9.69955280538670E-08  8.93725287491615E+00
 cg2d: Sum(rhs),rhsMax =  -9.69441273923621E-08  8.94195305183593E+00
 cg2d: Sum(rhs),rhsMax =  -9.68941833434656E-08  8.94658701582531E+00
 cg2d: Sum(rhs),rhsMax =  -9.68450208915783E-08  8.95115692214719E+00
 cg2d: Sum(rhs),rhsMax =  -9.67962705544778E-08  8.95566589123099E+00
 cg2d: Sum(rhs),rhsMax =  -9.67482165492584E-08  8.96011786358850E+00
 cg2d: Sum(rhs),rhsMax =  -9.67008020325011E-08  8.96451747891563E+00
 cg2d: Sum(rhs),rhsMax =  -9.66539346336504E-08  8.96886998187158E+00
 cg2d: Sum(rhs),rhsMax =  -9.66078843589457E-08  8.97318115409823E+00
 cg2d: Sum(rhs),rhsMax =  -9.65621254067628E-08  8.97745726495199E+00
 cg2d: Sum(rhs),rhsMax =  -9.65159685506478E-08  8.98170502198163E+00
 cg2d: Sum(rhs),rhsMax =  -9.64709272466280E-08  8.98593151889555E+00
 cg2d: Sum(rhs),rhsMax =  -9.64258006774799E-08  8.99014423145949E+00
 cg2d: Sum(rhs),rhsMax =  -9.63806954246138E-08  8.99435085408351E+00
 cg2d: Sum(rhs),rhsMax =  -9.63354978011921E-08  8.99855914272681E+00
 cg2d: Sum(rhs),rhsMax =  -9.62904493917449E-08  9.00277662786875E+00
 cg2d: Sum(rhs),rhsMax =  -9.62449746566563E-08  9.00700998220796E+00
 cg2d: Sum(rhs),rhsMax =  -9.61997557169525E-08  9.01126574761483E+00
 cg2d: Sum(rhs),rhsMax =  -9.61540180810516E-08  9.01555039729210E+00
 cg2d: Sum(rhs),rhsMax =  -9.61077120109621E-08  9.01986971435378E+00
 cg2d: Sum(rhs),rhsMax =  -9.60613775191632E-08  9.02422880815445E+00
 cg2d: Sum(rhs),rhsMax =  -9.60143182737738E-08  9.02863205182447E+00
 cg2d: Sum(rhs),rhsMax =  -9.59668398081703E-08  9.03308295193821E+00
 cg2d: Sum(rhs),rhsMax =  -9.59189492277801E-08  9.03758400719746E+00
 cg2d: Sum(rhs),rhsMax =  -9.58706323217484E-08  9.04213663854453E+00
 cg2d: Sum(rhs),rhsMax =  -9.58215622404168E-08  9.04674109185253E+00
 cg2d: Sum(rhs),rhsMax =  -9.57721724148541E-08  9.05139640217902E+00
 cg2d: Sum(rhs),rhsMax =  -9.57223775799321E-08  9.05610040614876E+00
 cg2d: Sum(rhs),rhsMax =  -9.56718224642827E-08  9.06084979109159E+00
 cg2d: Sum(rhs),rhsMax =  -9.56211039238042E-08  9.06564017672268E+00
 cg2d: Sum(rhs),rhsMax =  -9.55700798499493E-08  9.07046622792088E+00
 cg2d: Sum(rhs),rhsMax =  -9.55189918272481E-08  9.07532179655311E+00
 cg2d: Sum(rhs),rhsMax =  -9.54672145780933E-08  9.08020008054443E+00
 cg2d: Sum(rhs),rhsMax =  -9.54156860188959E-08  9.08509379067778E+00
 cg2d: Sum(rhs),rhsMax =  -9.53640864054250E-08  9.08999532389517E+00
 cg2d: Sum(rhs),rhsMax =  -9.53120391500306E-08  9.09489685062687E+00
 cg2d: Sum(rhs),rhsMax =  -9.52604963799786E-08  9.09979078670731E+00
 cg2d: Sum(rhs),rhsMax =  -9.52091738781746E-08  9.10466952325132E+00
 cg2d: Sum(rhs),rhsMax =  -9.51581995423112E-08  9.10952586151125E+00
 cg2d: Sum(rhs),rhsMax =  -9.51075378452515E-08  9.11435305322486E+00
 cg2d: Sum(rhs),rhsMax =  -9.50568974644739E-08  9.11914489544444E+00
 cg2d: Sum(rhs),rhsMax =  -9.50070173644235E-08  9.12389583482653E+00
 cg2d: Sum(rhs),rhsMax =  -9.49582670273230E-08  9.12860106773695E+00
 cg2d: Sum(rhs),rhsMax =  -9.49094669522310E-08  9.13325671324743E+00
 cg2d: Sum(rhs),rhsMax =  -9.48612637330370E-08  9.13785989332165E+00
 cg2d: Sum(rhs),rhsMax =  -9.48139060596986E-08  9.14240888612431E+00
 cg2d: Sum(rhs),rhsMax =  -9.47671381368309E-08  9.14690322805975E+00
 cg2d: Sum(rhs),rhsMax =  -9.47210025969980E-08  9.15134376400067E+00
 cg2d: Sum(rhs),rhsMax =  -9.46753857533622E-08  9.15573262291172E+00
 cg2d: Sum(rhs),rhsMax =  -9.46305078741716E-08  9.16007311317651E+00
 cg2d: Sum(rhs),rhsMax =  -9.45855020972886E-08  9.16436954661381E+00
 EXTERNAL_FIELDS_LOAD, it=   3600090 : Reading new data, i0,i1=    2    3 (prev=    1    2 )
 DIC_FIELDS_LOAD, it=   3600090 : Reading new data, i0,i1=    2    3 (prev=    1    2 )
 cg2d: Sum(rhs),rhsMax =  -9.45416047670733E-08  9.16862700792054E+00
 cg2d: Sum(rhs),rhsMax =  -9.44977784911316E-08  9.17286965792043E+00
 cg2d: Sum(rhs),rhsMax =  -9.44538882663437E-08  9.17711460232796E+00
 cg2d: Sum(rhs),rhsMax =  -9.44097777733077E-08  9.18137827264839E+00
 cg2d: Sum(rhs),rhsMax =  -9.43655606988614E-08  9.18567586102450E+00
 cg2d: Sum(rhs),rhsMax =  -9.43208533499273E-08  9.19002086507332E+00
 cg2d: Sum(rhs),rhsMax =  -9.42755065125311E-08  9.19442473147613E+00
 cg2d: Sum(rhs),rhsMax =  -9.42294988703907E-08  9.19889660310093E+00
 cg2d: Sum(rhs),rhsMax =  -9.41831217460276E-08  9.20344317156002E+00
 cg2d: Sum(rhs),rhsMax =  -9.41357711781166E-08  9.20806863385625E+00
 cg2d: Sum(rhs),rhsMax =  -9.40875679589226E-08  9.21277472508850E+00
 cg2d: Sum(rhs),rhsMax =  -9.40387323566938E-08  9.21756082935263E+00
 cg2d: Sum(rhs),rhsMax =  -9.39891506845925E-08  9.22242415169496E+00
 cg2d: Sum(rhs),rhsMax =  -9.39387589937724E-08  9.22735992735964E+00
 cg2d: Sum(rhs),rhsMax =  -9.38874578082505E-08  9.23236166048178E+00
 cg2d: Sum(rhs),rhsMax =  -9.38360713576003E-08  9.23742136926884E+00
 cg2d: Sum(rhs),rhsMax =  -9.37847204340869E-08  9.24252982829311E+00
 cg2d: Sum(rhs),rhsMax =  -9.37326518624104E-08  9.24767682825910E+00
 cg2d: Sum(rhs),rhsMax =  -9.36799651185538E-08  9.25285135651627E+00
 cg2d: Sum(rhs),rhsMax =  -9.36278468088858E-08  9.25804181556396E+00
 cg2d: Sum(rhs),rhsMax =  -9.35753803332773E-08  9.26323624437734E+00
 cg2d: Sum(rhs),rhsMax =  -9.35233543941649E-08  9.26842252954541E+00
 cg2d: Sum(rhs),rhsMax =  -9.34712076627875E-08  9.27358855590945E+00
 cg2d: Sum(rhs),rhsMax =  -9.34198851609835E-08  9.27872221865362E+00
 cg2d: Sum(rhs),rhsMax =  -9.33687331894362E-08  9.28381269175841E+00
 cg2d: Sum(rhs),rhsMax =  -9.33183130769066E-08  9.28884990364347E+00
 cg2d: Sum(rhs),rhsMax =  -9.32684542931383E-08  9.29382460831193E+00
 cg2d: Sum(rhs),rhsMax =  -9.32194410552256E-08  9.29872876125425E+00
 cg2d: Sum(rhs),rhsMax =  -9.31711383600486E-08  9.30355578941157E+00
 cg2d: Sum(rhs),rhsMax =  -9.31240364820951E-08  9.30830071441787E+00
 cg2d: Sum(rhs),rhsMax =  -9.30773893514925E-08  9.31296016039586E+00
 cg2d: Sum(rhs),rhsMax =  -9.30318719838397E-08  9.31753230345820E+00
 cg2d: Sum(rhs),rhsMax =  -9.29872783217434E-08  9.32201677457960E+00
 cg2d: Sum(rhs),rhsMax =  -9.29437931063148E-08  9.32641453687162E+00
 cg2d: Sum(rhs),rhsMax =  -9.29007910599466E-08  9.33072777407330E+00
 cg2d: Sum(rhs),rhsMax =  -9.28590253579387E-08  9.33495977832897E+00
 cg2d: Sum(rhs),rhsMax =  -9.28177001924269E-08  9.33911483571782E+00
 cg2d: Sum(rhs),rhsMax =  -9.27770358316593E-08  9.34319809772528E+00
 cg2d: Sum(rhs),rhsMax =  -9.27373591252945E-08  9.34721542637213E+00
 cg2d: Sum(rhs),rhsMax =  -9.26982295368362E-08  9.35117321728378E+00
 cg2d: Sum(rhs),rhsMax =  -9.26594978523099E-08  9.35507820898651E+00
 cg2d: Sum(rhs),rhsMax =  -9.26212777585533E-08  9.35893728101038E+00
 cg2d: Sum(rhs),rhsMax =  -9.25836900478316E-08  9.36275724876052E+00
 cg2d: Sum(rhs),rhsMax =  -9.25467347201447E-08  9.36654466497940E+00
 cg2d: Sum(rhs),rhsMax =  -9.25093388559617E-08  9.37030563739009E+00
 cg2d: Sum(rhs),rhsMax =  -9.24723693174201E-08  9.37404566529748E+00
 cg2d: Sum(rhs),rhsMax =  -9.24358261045199E-08  9.37776950669782E+00
 cg2d: Sum(rhs),rhsMax =  -9.23998015878169E-08  9.38148107939576E+00
 cg2d: Sum(rhs),rhsMax =  -9.23633649563271E-08  9.38518340080342E+00
 cg2d: Sum(rhs),rhsMax =  -9.23271628039402E-08  9.38887856431341E+00
 cg2d: Sum(rhs),rhsMax =  -9.22907545941598E-08  9.39256775253961E+00
 cg2d: Sum(rhs),rhsMax =  -9.22549361348501E-08  9.39625127829926E+00
 cg2d: Sum(rhs),rhsMax =  -9.22186487173349E-08  9.39992865313115E+00
 cg2d: Sum(rhs),rhsMax =  -9.21831713185384E-08  9.40359867110262E+00
 cg2d: Sum(rhs),rhsMax =  -9.21473457538013E-08  9.40725949891390E+00
 cg2d: Sum(rhs),rhsMax =  -9.21119038821416E-08  9.41090875978471E+00
 cg2d: Sum(rhs),rhsMax =  -9.20763412182168E-08  9.41454361858659E+00
 cg2d: Sum(rhs),rhsMax =  -9.20410343496769E-08  9.41816086827301E+00
 cg2d: Sum(rhs),rhsMax =  -9.20060685416502E-08  9.42175701532902E+00
 cg2d: Sum(rhs),rhsMax =  -9.19711879987517E-08  9.42532836100955E+00
 EXTERNAL_FIELDS_LOAD, it=   3600150 : Reading new data, i0,i1=    3    4 (prev=    2    3 )
 DIC_FIELDS_LOAD, it=   3600150 : Reading new data, i0,i1=    3    4 (prev=    2    3 )
 cg2d: Sum(rhs),rhsMax =  -9.19367622032041E-08  9.42887108055882E+00
 cg2d: Sum(rhs),rhsMax =  -9.19030327395376E-08  9.43235832256638E+00
 cg2d: Sum(rhs),rhsMax =  -9.18696727580937E-08  9.43577294710938E+00
 cg2d: Sum(rhs),rhsMax =  -9.18375349101552E-08  9.43909901719340E+00
 cg2d: Sum(rhs),rhsMax =  -9.18056457521743E-08  9.44232226351574E+00
 cg2d: Sum(rhs),rhsMax =  -9.17754618967592E-08  9.44543045713848E+00
 cg2d: Sum(rhs),rhsMax =  -9.17468696570722E-08  9.44841368652191E+00
 cg2d: Sum(rhs),rhsMax =  -9.17188671678559E-08  9.45126453300903E+00
 cg2d: Sum(rhs),rhsMax =  -9.16929749905648E-08  9.45397814472091E+00
 cg2d: Sum(rhs),rhsMax =  -9.16680278351123E-08  9.45655223330268E+00
 cg2d: Sum(rhs),rhsMax =  -9.16445941356869E-08  9.45898700078271E+00
 cg2d: Sum(rhs),rhsMax =  -9.16223754643397E-08  9.46128500172268E+00
 cg2d: Sum(rhs),rhsMax =  -9.16011231311131E-08  9.46345095767279E+00
 cg2d: Sum(rhs),rhsMax =  -9.15811568802383E-08  9.46549153513779E+00
 cg2d: Sum(rhs),rhsMax =  -9.15625619768434E-08  9.46741508859273E+00
 cg2d: Sum(rhs),rhsMax =  -9.15451252581079E-08  9.46923137659912E+00
 cg2d: Sum(rhs),rhsMax =  -9.15285980340741E-08  9.47095124324780E+00
 cg2d: Sum(rhs),rhsMax =  -9.15126108225195E-08  9.47258633929544E+00
 cg2d: Sum(rhs),rhsMax =  -9.14974762622478E-08  9.47414881667898E+00
 cg2d: Sum(rhs),rhsMax =  -9.14831588261222E-08  9.47565102854520E+00
 cg2d: Sum(rhs),rhsMax =  -9.14691185016636E-08  9.47710524161440E+00
 cg2d: Sum(rhs),rhsMax =  -9.14552913400257E-08  9.47852337330871E+00
 cg2d: Sum(rhs),rhsMax =  -9.14417910280463E-08  9.47991675839448E+00
 cg2d: Sum(rhs),rhsMax =  -9.14288023068366E-08  9.48129594936036E+00
 cg2d: Sum(rhs),rhsMax =  -9.14153162057119E-08  9.48267055268677E+00
 cg2d: Sum(rhs),rhsMax =  -9.14016951014673E-08  9.48404910672501E+00
 cg2d: Sum(rhs),rhsMax =  -9.13883866360266E-08  9.48543898881096E+00
 cg2d: Sum(rhs),rhsMax =  -9.13749147457565E-08  9.48684634838855E+00
 cg2d: Sum(rhs),rhsMax =  -9.13611231112554E-08  9.48827608016959E+00
 cg2d: Sum(rhs),rhsMax =  -9.13465854068818E-08  9.48973182637241E+00
 cg2d: Sum(rhs),rhsMax =  -9.13324456064402E-08  9.49121598932757E+00
 cg2d: Sum(rhs),rhsMax =  -9.13176805283911E-08  9.49272976482376E+00
 cg2d: Sum(rhs),rhsMax =  -9.13029793991882E-08  9.49427318407705E+00
 cg2d: Sum(rhs),rhsMax =  -9.12876600978052E-08  9.49584517202971E+00
 cg2d: Sum(rhs),rhsMax =  -9.12722768475760E-08  9.49744362566448E+00
 cg2d: Sum(rhs),rhsMax =  -9.12563962174318E-08  9.49906550905340E+00
 cg2d: Sum(rhs),rhsMax =  -9.12406292741252E-08  9.50070696299551E+00
 cg2d: Sum(rhs),rhsMax =  -9.12245567974423E-08  9.50236342680402E+00
 cg2d: Sum(rhs),rhsMax =  -9.12086122184519E-08  9.50402976802920E+00
 cg2d: Sum(rhs),rhsMax =  -9.11920636781360E-08  9.50570042893596E+00
 cg2d: Sum(rhs),rhsMax =  -9.11760835720088E-08  9.50736956748404E+00
 cg2d: Sum(rhs),rhsMax =  -9.11599897790438E-08  9.50903122489705E+00
 cg2d: Sum(rhs),rhsMax =  -9.11439812512072E-08  9.51067944299842E+00
 cg2d: Sum(rhs),rhsMax =  -9.11286619498242E-08  9.51230836255520E+00
 cg2d: Sum(rhs),rhsMax =  -9.11128452685261E-08  9.51391232343393E+00
 cg2d: Sum(rhs),rhsMax =  -9.10978172896648E-08  9.51548598638282E+00
 cg2d: Sum(rhs),rhsMax =  -9.10825903588375E-08  9.51702443978652E+00
 cg2d: Sum(rhs),rhsMax =  -9.10679744947629E-08  9.51852327194360E+00
 cg2d: Sum(rhs),rhsMax =  -9.10538062726118E-08  9.51997861079381E+00
 cg2d: Sum(rhs),rhsMax =  -9.10403272769145E-08  9.52138713289450E+00
 cg2d: Sum(rhs),rhsMax =  -9.10271680254482E-08  9.52274605554116E+00
 cg2d: Sum(rhs),rhsMax =  -9.10143498344951E-08  9.52405313717331E+00
 cg2d: Sum(rhs),rhsMax =  -9.10022919242692E-08  9.52530666028232E+00
 cg2d: Sum(rhs),rhsMax =  -9.09905324419924E-08  9.52650541109617E+00
 cg2d: Sum(rhs),rhsMax =  -9.09794692915966E-08  9.52764864727963E+00
 cg2d: Sum(rhs),rhsMax =  -9.09689816808168E-08  9.52873605079492E+00
 cg2d: Sum(rhs),rhsMax =  -9.09588422359775E-08  9.52976767849440E+00
 cg2d: Sum(rhs),rhsMax =  -9.09493280687457E-08  9.53074391639987E+00
 cg2d: Sum(rhs),rhsMax =  -9.09404391791213E-08  9.53166530103624E+00
 cg2d: Sum(rhs),rhsMax =  -9.09316284491979E-08  9.53253252588939E+00
 EXTERNAL_FIELDS_LOAD, it=   3600210 : Reading new data, i0,i1=    4    5 (prev=    3    4 )
 DIC_FIELDS_LOAD, it=   3600210 : Reading new data, i0,i1=    4    5 (prev=    3    4 )
 cg2d: Sum(rhs),rhsMax =  -9.09236845814121E-08  9.53334634295211E+00
 cg2d: Sum(rhs),rhsMax =  -9.09162238826866E-08  9.53412016630968E+00
 cg2d: Sum(rhs),rhsMax =  -9.09088555545168E-08  9.53486144691540E+00
 cg2d: Sum(rhs),rhsMax =  -9.09020556605356E-08  9.53557668814411E+00
 cg2d: Sum(rhs),rhsMax =  -9.08950781308704E-08  9.53626990934916E+00
 cg2d: Sum(rhs),rhsMax =  -9.08885269268467E-08  9.53694479201801E+00
 cg2d: Sum(rhs),rhsMax =  -9.08819686173956E-08  9.53760402798875E+00
 cg2d: Sum(rhs),rhsMax =  -9.08758792661502E-08  9.53824943192211E+00
 cg2d: Sum(rhs),rhsMax =  -9.08692001644340E-08  9.53888215688552E+00
 cg2d: Sum(rhs),rhsMax =  -9.08633310814366E-08  9.53950304357000E+00
 cg2d: Sum(rhs),rhsMax =  -9.08575117364308E-08  9.54011304176576E+00
 cg2d: Sum(rhs),rhsMax =  -9.08516142317239E-08  9.54071301635899E+00
 cg2d: Sum(rhs),rhsMax =  -9.08458943627011E-08  9.54130322912294E+00
 cg2d: Sum(rhs),rhsMax =  -9.08400252797037E-08  9.54188272003942E+00
 cg2d: Sum(rhs),rhsMax =  -9.08349306882883E-08  9.54244934290944E+00
 cg2d: Sum(rhs),rhsMax =  -9.08295305634965E-08  9.54299999628384E+00
 cg2d: Sum(rhs),rhsMax =  -9.08241872821236E-08  9.54353092308816E+00
 cg2d: Sum(rhs),rhsMax =  -9.08189861092978E-08  9.54403796863502E+00
 cg2d: Sum(rhs),rhsMax =  -9.08142894218145E-08  9.54451678452915E+00
 cg2d: Sum(rhs),rhsMax =  -9.08097916862971E-08  9.54496303374895E+00
 cg2d: Sum(rhs),rhsMax =  -9.08056705384297E-08  9.54537256688658E+00
 cg2d: Sum(rhs),rhsMax =  -9.08016417611179E-08  9.54574155534994E+00
 cg2d: Sum(rhs),rhsMax =  -9.07979256226099E-08  9.54606657177462E+00
 cg2d: Sum(rhs),rhsMax =  -9.07952681927782E-08  9.54634467959792E+00
 cg2d: Sum(rhs),rhsMax =  -9.07924189164078E-08  9.54657345840157E+00
 cg2d: Sum(rhs),rhsMax =  -9.07902162339269E-08  9.54675102924543E+00
 cg2d: Sum(rhs),rhsMax =  -9.07886743561903E-08  9.54687605379506E+00
 cg2d: Sum(rhs),rhsMax =  -9.07877648614885E-08  9.54694771403842E+00
 cg2d: Sum(rhs),rhsMax =  -9.07869193156330E-08  9.54696566951997E+00
 cg2d: Sum(rhs),rhsMax =  -9.07865995714019E-08  9.54692999068711E+00
 cg2d: Sum(rhs),rhsMax =  -9.07872106381546E-08  9.54684108541375E+00
 cg2d: Sum(rhs),rhsMax =  -9.07884682987969E-08  9.54669963264824E+00
 cg2d: Sum(rhs),rhsMax =  -9.07898467517043E-08  9.54650651972953E+00
 cg2d: Sum(rhs),rhsMax =  -9.07915449488428E-08  9.54626274758502E+00
 cg2d: Sum(rhs),rhsMax =  -9.07941455352557E-08  9.54596935750525E+00
 cg2d: Sum(rhs),rhsMax =  -9.07970800767544E-08  9.54562738075971E+00
 cg2d: Sum(rhs),rhsMax =  -9.08000501453898E-08  9.54523778248193E+00
 cg2d: Sum(rhs),rhsMax =  -9.08038089164620E-08  9.54480140259877E+00
 cg2d: Sum(rhs),rhsMax =  -9.08078732209106E-08  9.54431888382345E+00
 cg2d: Sum(rhs),rhsMax =  -9.08128896526250E-08  9.54379063440704E+00
 cg2d: Sum(rhs),rhsMax =  -9.08179274006216E-08  9.54321682610369E+00
 cg2d: Sum(rhs),rhsMax =  -9.08231072571652E-08  9.54259741627488E+00
 cg2d: Sum(rhs),rhsMax =  -9.08294239820862E-08  9.54193218180504E+00
 cg2d: Sum(rhs),rhsMax =  -9.08357407070071E-08  9.54122075566689E+00
 cg2d: Sum(rhs),rhsMax =  -9.08426116552619E-08  9.54046266149910E+00
 cg2d: Sum(rhs),rhsMax =  -9.08497668206110E-08  9.53965734943055E+00
 cg2d: Sum(rhs),rhsMax =  -9.08576467395505E-08  9.53880424419014E+00
 cg2d: Sum(rhs),rhsMax =  -9.08659032461401E-08  9.53790282192021E+00
 cg2d: Sum(rhs),rhsMax =  -9.08746713434994E-08  9.53695268180845E+00
 cg2d: Sum(rhs),rhsMax =  -9.08840078750472E-08  9.53595362230667E+00
 cg2d: Sum(rhs),rhsMax =  -9.08936215182621E-08  9.53490571447803E+00
 cg2d: Sum(rhs),rhsMax =  -9.09042654484438E-08  9.53380930168364E+00
 cg2d: Sum(rhs),rhsMax =  -9.09145470018302E-08  9.53266493640869E+00
 cg2d: Sum(rhs),rhsMax =  -9.09259227910297E-08  9.53147332889492E+00
 cg2d: Sum(rhs),rhsMax =  -9.09384141323244E-08  9.53023537646442E+00
 cg2d: Sum(rhs),rhsMax =  -9.09505217805417E-08  9.52895220993865E+00
 cg2d: Sum(rhs),rhsMax =  -9.09629278567081E-08  9.52762520262973E+00
 cg2d: Sum(rhs),rhsMax =  -9.09757815747980E-08  9.52625594300855E+00
 cg2d: Sum(rhs),rhsMax =  -9.09892747813501E-08  9.52484621149773E+00
 cg2d: Sum(rhs),rhsMax =  -9.10029882561503E-08  9.52339794221070E+00
 EXTERNAL_FIELDS_LOAD, it=   3600270 : Reading new data, i0,i1=    5    6 (prev=    4    5 )
 DIC_FIELDS_LOAD, it=   3600270 : Reading new data, i0,i1=    5    6 (prev=    4    5 )
 cg2d: Sum(rhs),rhsMax =  -9.10169930534721E-08  9.52191318167782E+00
 cg2d: Sum(rhs),rhsMax =  -9.10311257484864E-08  9.52041761022813E+00
 cg2d: Sum(rhs),rhsMax =  -9.10455213443129E-08  9.51892843351038E+00
 cg2d: Sum(rhs),rhsMax =  -9.10593485059508E-08  9.51746258399289E+00
 cg2d: Sum(rhs),rhsMax =  -9.10729625047679E-08  9.51603636817957E+00
 cg2d: Sum(rhs),rhsMax =  -9.10860507019606E-08  9.51466517931999E+00
 cg2d: Sum(rhs),rhsMax =  -9.10986344138109E-08  9.51336322967766E+00
 cg2d: Sum(rhs),rhsMax =  -9.11102233658312E-08  9.51214329321166E+00
 cg2d: Sum(rhs),rhsMax =  -9.11212367782355E-08  9.51101645114812E+00
 cg2d: Sum(rhs),rhsMax =  -9.11308219997409E-08  9.50999185515969E+00
 cg2d: Sum(rhs),rhsMax =  -9.11397606273567E-08  9.50907652378690E+00
 cg2d: Sum(rhs),rhsMax =  -9.11473847509114E-08  9.50827517814543E+00
 cg2d: Sum(rhs),rhsMax =  -9.11540354309182E-08  9.50759014752173E+00
 cg2d: Sum(rhs),rhsMax =  -9.11595421371203E-08  9.50702134377118E+00
 cg2d: Sum(rhs),rhsMax =  -9.11640682943471E-08  9.50656629011210E+00
 cg2d: Sum(rhs),rhsMax =  -9.11673012637948E-08  9.50622019182364E+00
 cg2d: Sum(rhs),rhsMax =  -9.11696744765322E-08  9.50597606771963E+00
 cg2d: Sum(rhs),rhsMax =  -9.11708539774736E-08  9.50582494250500E+00
 cg2d: Sum(rhs),rhsMax =  -9.11716497853376E-08  9.50575608648473E+00
 cg2d: Sum(rhs),rhsMax =  -9.11714224116622E-08  9.50575729587021E+00
 cg2d: Sum(rhs),rhsMax =  -9.11708468720462E-08  9.50581523373235E+00
 cg2d: Sum(rhs),rhsMax =  -9.11699018502077E-08  9.50591575069248E+00
 cg2d: Sum(rhs),rhsMax =  -9.11685589244371E-08  9.50604420974297E+00
 cg2d: Sum(rhs),rhsMax =  -9.11669744141363E-08  9.50618583284504E+00
 cg2d: Sum(rhs),rhsMax =  -9.11656883317846E-08  9.50632606101357E+00
 cg2d: Sum(rhs),rhsMax =  -9.11643525114414E-08  9.50645090757042E+00
 cg2d: Sum(rhs),rhsMax =  -9.11635567035773E-08  9.50654729113363E+00
 cg2d: Sum(rhs),rhsMax =  -9.11632938027651E-08  9.50660334354173E+00
 cg2d: Sum(rhs),rhsMax =  -9.11633009081925E-08  9.50660868062301E+00
 cg2d: Sum(rhs),rhsMax =  -9.11639332912273E-08  9.50655462562515E+00
 cg2d: Sum(rhs),rhsMax =  -9.11649706836215E-08  9.50643436311089E+00
 cg2d: Sum(rhs),rhsMax =  -9.11672302095212E-08  9.50624304674150E+00
 cg2d: Sum(rhs),rhsMax =  -9.11696460548228E-08  9.50597781905916E+00
 cg2d: Sum(rhs),rhsMax =  -9.11727440211507E-08  9.50563777710892E+00
 cg2d: Sum(rhs),rhsMax =  -9.11770854372662E-08  9.50522393135291E+00
 cg2d: Sum(rhs),rhsMax =  -9.11816186999204E-08  9.50473911463816E+00
 cg2d: Sum(rhs),rhsMax =  -9.11870614572763E-08  9.50418773930678E+00
 cg2d: Sum(rhs),rhsMax =  -9.11928168534359E-08  9.50357558691374E+00
 cg2d: Sum(rhs),rhsMax =  -9.11992827923314E-08  9.50290964447458E+00
 cg2d: Sum(rhs),rhsMax =  -9.12065729608003E-08  9.50219791542795E+00
 cg2d: Sum(rhs),rhsMax =  -9.12139270781154E-08  9.50144918276843E+00
 cg2d: Sum(rhs),rhsMax =  -9.12212811954305E-08  9.50067274580360E+00
 cg2d: Sum(rhs),rhsMax =  -9.12293955934729E-08  9.49987815929010E+00
 cg2d: Sum(rhs),rhsMax =  -9.12369131356172E-08  9.49907498366882E+00
 cg2d: Sum(rhs),rhsMax =  -9.12447788437021E-08  9.49827255755378E+00
 cg2d: Sum(rhs),rhsMax =  -9.12528008711888E-08  9.49747978836020E+00
 cg2d: Sum(rhs),rhsMax =  -9.12602686753416E-08  9.49670496341604E+00
 cg2d: Sum(rhs),rhsMax =  -9.12679780640246E-08  9.49595558374171E+00
 cg2d: Sum(rhs),rhsMax =  -9.12747850634332E-08  9.49523821505845E+00
 cg2d: Sum(rhs),rhsMax =  -9.12811941589098E-08  9.49455836839740E+00
 cg2d: Sum(rhs),rhsMax =  -9.12878306280618E-08  9.49392042323925E+00
 cg2d: Sum(rhs),rhsMax =  -9.12937139219139E-08  9.49332754785973E+00
 cg2d: Sum(rhs),rhsMax =  -9.12992632606802E-08  9.49278165465699E+00
 cg2d: Sum(rhs),rhsMax =  -9.13035833605136E-08  9.49228339433203E+00
 cg2d: Sum(rhs),rhsMax =  -9.13086424247922E-08  9.49183218209292E+00
 cg2d: Sum(rhs),rhsMax =  -9.13127422563775E-08  9.49142625728328E+00
 cg2d: Sum(rhs),rhsMax =  -9.13163518134752E-08  9.49106276286301E+00
 cg2d: Sum(rhs),rhsMax =  -9.13194782015125E-08  9.49073783789306E+00
 cg2d: Sum(rhs),rhsMax =  -9.13225406407037E-08  9.49044672400271E+00
 cg2d: Sum(rhs),rhsMax =  -9.13253046519458E-08  9.49018390323782E+00
 EXTERNAL_FIELDS_LOAD, it=   3600330 : Reading new data, i0,i1=    6    7 (prev=    5    6 )
 DIC_FIELDS_LOAD, it=   3600330 : Reading new data, i0,i1=    6    7 (prev=    5    6 )
 cg2d: Sum(rhs),rhsMax =  -9.13276210212643E-08  9.48994325700856E+00
 cg2d: Sum(rhs),rhsMax =  -9.13303352945150E-08  9.48970801758053E+00
 cg2d: Sum(rhs),rhsMax =  -9.13328221940901E-08  9.48946471682098E+00
 cg2d: Sum(rhs),rhsMax =  -9.13353943587936E-08  9.48919980375378E+00
 cg2d: Sum(rhs),rhsMax =  -9.13383644274290E-08  9.48889996251626E+00
 cg2d: Sum(rhs),rhsMax =  -9.13418460868343E-08  9.48855235316500E+00
 cg2d: Sum(rhs),rhsMax =  -9.13461093432488E-08  9.48814487205053E+00
 cg2d: Sum(rhs),rhsMax =  -9.13508344524416E-08  9.48766639266868E+00
 cg2d: Sum(rhs),rhsMax =  -9.13563624749258E-08  9.48710698236420E+00
 cg2d: Sum(rhs),rhsMax =  -9.13624518261713E-08  9.48645808347463E+00
 cg2d: Sum(rhs),rhsMax =  -9.13698130489138E-08  9.48571268422533E+00
 cg2d: Sum(rhs),rhsMax =  -9.13783111400335E-08  9.48486545850383E+00
 cg2d: Sum(rhs),rhsMax =  -9.13876760932908E-08  9.48391285858374E+00
 cg2d: Sum(rhs),rhsMax =  -9.13977800109933E-08  9.48285315351105E+00
 cg2d: Sum(rhs),rhsMax =  -9.14093334358768E-08  9.48168641391458E+00
 cg2d: Sum(rhs),rhsMax =  -9.14215760872139E-08  9.48041445516485E+00
 cg2d: Sum(rhs),rhsMax =  -9.14348703418000E-08  9.47904073781749E+00
 cg2d: Sum(rhs),rhsMax =  -9.14490314585237E-08  9.47757022510765E+00
 cg2d: Sum(rhs),rhsMax =  -9.14641802296501E-08  9.47600920384239E+00
 cg2d: Sum(rhs),rhsMax =  -9.14802384954783E-08  9.47436507523804E+00
 cg2d: Sum(rhs),rhsMax =  -9.14970428311790E-08  9.47264612546539E+00
 cg2d: Sum(rhs),rhsMax =  -9.15143658630768E-08  9.47086128598380E+00
 cg2d: Sum(rhs),rhsMax =  -9.15317244221114E-08  9.46901988541289E+00
 cg2d: Sum(rhs),rhsMax =  -9.15503548526431E-08  9.46713139755286E+00
 cg2d: Sum(rhs),rhsMax =  -9.15688005420634E-08  9.46520519129246E+00
 cg2d: Sum(rhs),rhsMax =  -9.15879354579374E-08  9.46325027783096E+00
 cg2d: Sum(rhs),rhsMax =  -9.16070561629567E-08  9.46127510172983E+00
 cg2d: Sum(rhs),rhsMax =  -9.16269016215665E-08  9.45928736176468E+00
 cg2d: Sum(rhs),rhsMax =  -9.16458375854745E-08  9.45729384446051E+00
 cg2d: Sum(rhs),rhsMax =  -9.16652354021608E-08  9.45530032221759E+00
 cg2d: Sum(rhs),rhsMax =  -9.16847469056847E-08  9.45331147339530E+00
 cg2d: Sum(rhs),rhsMax =  -9.17041660386531E-08  9.45133082537812E+00
 cg2d: Sum(rhs),rhsMax =  -9.17234714847837E-08  9.44936073119909E+00
 cg2d: Sum(rhs),rhsMax =  -9.17423008672813E-08  9.44740238220463E+00
 cg2d: Sum(rhs),rhsMax =  -9.17614002560185E-08  9.44545585645758E+00
 cg2d: Sum(rhs),rhsMax =  -9.17801870059520E-08  9.44352020252140E+00
 cg2d: Sum(rhs),rhsMax =  -9.17989737558855E-08  9.44159355733174E+00
 cg2d: Sum(rhs),rhsMax =  -9.18179097197935E-08  9.43967327626014E+00
 cg2d: Sum(rhs),rhsMax =  -9.18367177860091E-08  9.43775607395104E+00
 cg2d: Sum(rhs),rhsMax =  -9.18552629514124E-08  9.43583817490269E+00
 cg2d: Sum(rhs),rhsMax =  -9.18742912858761E-08  9.43391546318717E+00
 cg2d: Sum(rhs),rhsMax =  -9.18933977800407E-08  9.43198362529795E+00
 cg2d: Sum(rhs),rhsMax =  -9.19123053222393E-08  9.43003828806143E+00
 cg2d: Sum(rhs),rhsMax =  -9.19319091963189E-08  9.42807514245689E+00
 cg2d: Sum(rhs),rhsMax =  -9.19516196518089E-08  9.42609005034801E+00
 cg2d: Sum(rhs),rhsMax =  -9.19711453661876E-08  9.42407914155286E+00
 cg2d: Sum(rhs),rhsMax =  -9.19916374186869E-08  9.42203890101561E+00
 cg2d: Sum(rhs),rhsMax =  -9.20122005254598E-08  9.41996625280574E+00
 cg2d: Sum(rhs),rhsMax =  -9.20328773190704E-08  9.41785862954787E+00
 cg2d: Sum(rhs),rhsMax =  -9.20541722848611E-08  9.41571402403211E+00
 cg2d: Sum(rhs),rhsMax =  -9.20761920042423E-08  9.41353104362712E+00
 cg2d: Sum(rhs),rhsMax =  -9.20975224971698E-08  9.41130897700722E+00
 cg2d: Sum(rhs),rhsMax =  -9.21202243375774E-08  9.40904782014454E+00
 cg2d: Sum(rhs),rhsMax =  -9.21427556477283E-08  9.40674826682519E+00
 cg2d: Sum(rhs),rhsMax =  -9.21658624974953E-08  9.40441167656376E+00
 cg2d: Sum(rhs),rhsMax =  -9.21897651551262E-08  9.40204003109270E+00
 cg2d: Sum(rhs),rhsMax =  -9.22136393910478E-08  9.39963588692061E+00
 cg2d: Sum(rhs),rhsMax =  -9.22377765277815E-08  9.39720232327049E+00
 cg2d: Sum(rhs),rhsMax =  -9.22617147125493E-08  9.39474287623570E+00
 cg2d: Sum(rhs),rhsMax =  -9.22866476571471E-08  9.39226147078604E+00
 EXTERNAL_FIELDS_LOAD, it=   3600390 : Reading new data, i0,i1=    7    8 (prev=    6    7 )
 DIC_FIELDS_LOAD, it=   3600390 : Reading new data, i0,i1=    7    8 (prev=    6    7 )
 cg2d: Sum(rhs),rhsMax =  -9.23120353490958E-08  9.38976233427929E+00
 cg2d: Sum(rhs),rhsMax =  -9.23369185557021E-08  9.38724381347799E+00
 cg2d: Sum(rhs),rhsMax =  -9.23620930848301E-08  9.38470550458213E+00
 cg2d: Sum(rhs),rhsMax =  -9.23878431535741E-08  9.38214640732935E+00
 cg2d: Sum(rhs),rhsMax =  -9.24133303215058E-08  9.37956498127073E+00
 cg2d: Sum(rhs),rhsMax =  -9.24395564538827E-08  9.37695924403383E+00
 cg2d: Sum(rhs),rhsMax =  -9.24659673273709E-08  9.37432689628576E+00
 cg2d: Sum(rhs),rhsMax =  -9.24926268908166E-08  9.37166545130188E+00
 cg2d: Sum(rhs),rhsMax =  -9.25199330481519E-08  9.36897236493602E+00
 cg2d: Sum(rhs),rhsMax =  -9.25472107837777E-08  9.36624514198210E+00
 cg2d: Sum(rhs),rhsMax =  -9.25749148450450E-08  9.36348144222541E+00
 cg2d: Sum(rhs),rhsMax =  -9.26027894365689E-08  9.36067916467522E+00
 cg2d: Sum(rhs),rhsMax =  -9.26316801042049E-08  9.35783651518778E+00
 cg2d: Sum(rhs),rhsMax =  -9.26604357687211E-08  9.35495205473915E+00
 cg2d: Sum(rhs),rhsMax =  -9.26899872411013E-08  9.35202472862356E+00
 cg2d: Sum(rhs),rhsMax =  -9.27198087197212E-08  9.34905386050751E+00
 cg2d: Sum(rhs),rhsMax =  -9.27502270542391E-08  9.34603912446753E+00
 cg2d: Sum(rhs),rhsMax =  -9.27809580275607E-08  9.34298052032945E+00
 cg2d: Sum(rhs),rhsMax =  -9.28122148025068E-08  9.33987837125357E+00
 cg2d: Sum(rhs),rhsMax =  -9.28438836922396E-08  9.33673332003228E+00
 cg2d: Sum(rhs),rhsMax =  -9.28756591633828E-08  9.33354631509102E+00
 cg2d: Sum(rhs),rhsMax =  -9.29085999246126E-08  9.33031856217985E+00
 cg2d: Sum(rhs),rhsMax =  -9.29414056827227E-08  9.32705144157814E+00
 cg2d: Sum(rhs),rhsMax =  -9.29742824951063E-08  9.32374640924821E+00
 cg2d: Sum(rhs),rhsMax =  -9.30079835370634E-08  9.32040491207867E+00
 cg2d: Sum(rhs),rhsMax =  -9.30417982658582E-08  9.31702830536998E+00
 cg2d: Sum(rhs),rhsMax =  -9.30764798567907E-08  9.31361778906816E+00
 cg2d: Sum(rhs),rhsMax =  -9.31104011669959E-08  9.31017435680010E+00
 cg2d: Sum(rhs),rhsMax =  -9.31454593455783E-08  9.30669874783390E+00
 cg2d: Sum(rhs),rhsMax =  -9.31809367443748E-08  9.30319140183628E+00
 cg2d: Sum(rhs),rhsMax =  -9.32159238686836E-08  9.29965242032067E+00
 cg2d: Sum(rhs),rhsMax =  -9.32518702256857E-08  9.29608155387300E+00
 cg2d: Sum(rhs),rhsMax =  -9.32883352788849E-08  9.29247816276956E+00
 cg2d: Sum(rhs),rhsMax =  -9.33245232204172E-08  9.28884120452690E+00
 cg2d: Sum(rhs),rhsMax =  -9.33613577558390E-08  9.28516924951164E+00
 cg2d: Sum(rhs),rhsMax =  -9.33982562401070E-08  9.28146051649491E+00
 cg2d: Sum(rhs),rhsMax =  -9.34364479121541E-08  9.27771291851975E+00
 cg2d: Sum(rhs),rhsMax =  -9.34740143065937E-08  9.27392411497484E+00
 cg2d: Sum(rhs),rhsMax =  -9.35126251988549E-08  9.27009157616147E+00
 cg2d: Sum(rhs),rhsMax =  -9.35518329470142E-08  9.26621266064052E+00
 cg2d: Sum(rhs),rhsMax =  -9.35912964905583E-08  9.26228469753356E+00
 cg2d: Sum(rhs),rhsMax =  -9.36311082000429E-08  9.25830502540661E+00
 cg2d: Sum(rhs),rhsMax =  -9.36718080879473E-08  9.25427104022615E+00
 cg2d: Sum(rhs),rhsMax =  -9.37130835154676E-08  9.25018025806528E+00
 cg2d: Sum(rhs),rhsMax =  -9.37547639523473E-08  9.24603037476154E+00
 cg2d: Sum(rhs),rhsMax =  -9.37974888870485E-08  9.24181932462259E+00
 cg2d: Sum(rhs),rhsMax =  -9.38402919814507E-08  9.23754533703139E+00
 cg2d: Sum(rhs),rhsMax =  -9.38843172093584E-08  9.23320698439808E+00
 cg2d: Sum(rhs),rhsMax =  -9.39290814017113E-08  9.22880321317793E+00
 cg2d: Sum(rhs),rhsMax =  -9.39739734917566E-08  9.22433335164241E+00
 cg2d: Sum(rhs),rhsMax =  -9.40200521881707E-08  9.21979710173837E+00
 cg2d: Sum(rhs),rhsMax =  -9.40667135296280E-08  9.21519452384442E+00
 cg2d: Sum(rhs),rhsMax =  -9.41140712029664E-08  9.21052602027441E+00
 cg2d: Sum(rhs),rhsMax =  -9.41621181027585E-08  9.20579231856880E+00
 cg2d: Sum(rhs),rhsMax =  -9.42108115964402E-08  9.20099445172383E+00
 cg2d: Sum(rhs),rhsMax =  -9.42603506359774E-08  9.19613373409314E+00
 cg2d: Sum(rhs),rhsMax =  -9.43106570616692E-08  9.19121172891709E+00
 cg2d: Sum(rhs),rhsMax =  -9.43619582471911E-08  9.18623021276131E+00
 cg2d: Sum(rhs),rhsMax =  -9.44129254776271E-08  9.18119115032627E+00
 cg2d: Sum(rhs),rhsMax =  -9.44648874678933E-08  9.17609666859133E+00
 EXTERNAL_FIELDS_LOAD, it=   3600450 : Reading new data, i0,i1=    8    9 (prev=    7    8 )
 DIC_FIELDS_LOAD, it=   3600450 : Reading new data, i0,i1=    8    9 (prev=    7    8 )
 cg2d: Sum(rhs),rhsMax =  -9.45180929079470E-08  9.17094900539886E+00
 cg2d: Sum(rhs),rhsMax =  -9.45713196642828E-08  9.16576037761048E+00
 cg2d: Sum(rhs),rhsMax =  -9.46249869571147E-08  9.16053907873528E+00
 cg2d: Sum(rhs),rhsMax =  -9.46787679367844E-08  9.15529303788953E+00
 cg2d: Sum(rhs),rhsMax =  -9.47327123412833E-08  9.15002961005962E+00
 cg2d: Sum(rhs),rhsMax =  -9.47873814993727E-08  9.14475542293395E+00
 cg2d: Sum(rhs),rhsMax =  -9.48415888046839E-08  9.13947626776025E+00
 cg2d: Sum(rhs),rhsMax =  -9.48963148061921E-08  9.13419703804716E+00
 cg2d: Sum(rhs),rhsMax =  -9.49505718494947E-08  9.12892171232682E+00
 cg2d: Sum(rhs),rhsMax =  -9.50055820680973E-08  9.12365335338700E+00
 cg2d: Sum(rhs),rhsMax =  -9.50602441207593E-08  9.11839411243203E+00
 cg2d: Sum(rhs),rhsMax =  -9.51149274897034E-08  9.11314523538299E+00
 cg2d: Sum(rhs),rhsMax =  -9.51689713701853E-08  9.10790707134369E+00
 cg2d: Sum(rhs),rhsMax =  -9.52241663298992E-08  9.10267908920085E+00
 cg2d: Sum(rhs),rhsMax =  -9.52785583763216E-08  9.09745990818067E+00
 cg2d: Sum(rhs),rhsMax =  -9.53332346398383E-08  9.09224734512777E+00
 cg2d: Sum(rhs),rhsMax =  -9.53879322196372E-08  9.08703847736888E+00
 cg2d: Sum(rhs),rhsMax =  -9.54423811094784E-08  9.08182972075513E+00
 cg2d: Sum(rhs),rhsMax =  -9.54974623823546E-08  9.07661692347198E+00
 cg2d: Sum(rhs),rhsMax =  -9.55527141854873E-08  9.07139547821490E+00
 cg2d: Sum(rhs),rhsMax =  -9.56078878289190E-08  9.06616045270155E+00
 cg2d: Sum(rhs),rhsMax =  -9.56632462134621E-08  9.06090673305150E+00
 cg2d: Sum(rhs),rhsMax =  -9.57190593453561E-08  9.05562917574046E+00
 cg2d: Sum(rhs),rhsMax =  -9.57753982788745E-08  9.05032276301453E+00
 cg2d: Sum(rhs),rhsMax =  -9.58323127520089E-08  9.04498274779792E+00
 cg2d: Sum(rhs),rhsMax =  -9.58890566948867E-08  9.03960479010611E+00
 cg2d: Sum(rhs),rhsMax =  -9.59469090844323E-08  9.03418508103277E+00
 cg2d: Sum(rhs),rhsMax =  -9.60046975251316E-08  9.02872044807494E+00
 cg2d: Sum(rhs),rhsMax =  -9.60634949365158E-08  9.02320843719522E+00
 cg2d: Sum(rhs),rhsMax =  -9.61234505325592E-08  9.01764736350553E+00
 cg2d: Sum(rhs),rhsMax =  -9.61829158541150E-08  9.01203632711249E+00
 cg2d: Sum(rhs),rhsMax =  -9.62436175200310E-08  9.00637519234014E+00
 cg2d: Sum(rhs),rhsMax =  -9.63047241953063E-08  9.00066454100738E+00
 cg2d: Sum(rhs),rhsMax =  -9.63663566722062E-08  8.99490560644289E+00
 cg2d: Sum(rhs),rhsMax =  -9.64286215321408E-08  8.98910019830229E+00
 cg2d: Sum(rhs),rhsMax =  -9.64914832479735E-08  8.98325060608421E+00
 cg2d: Sum(rhs),rhsMax =  -9.65549631359863E-08  8.97735949860674E+00
 cg2d: Sum(rhs),rhsMax =  -9.66191180395981E-08  8.97142982445055E+00
 cg2d: Sum(rhs),rhsMax =  -9.66832942594920E-08  8.96546471599943E+00
 cg2d: Sum(rhs),rhsMax =  -9.67482520763951E-08  8.95946740124540E+00
 cg2d: Sum(rhs),rhsMax =  -9.68132098932983E-08  8.95344112713886E+00
 cg2d: Sum(rhs),rhsMax =  -9.68790274669118E-08  8.94738909112794E+00
 cg2d: Sum(rhs),rhsMax =  -9.69447810916790E-08  8.94131438207753E+00
 cg2d: Sum(rhs),rhsMax =  -9.70111884157632E-08  8.93521991327319E+00
 cg2d: Sum(rhs),rhsMax =  -9.70773115227530E-08  8.92910833888471E+00
 cg2d: Sum(rhs),rhsMax =  -9.71445075492738E-08  8.92298199747039E+00
 cg2d: Sum(rhs),rhsMax =  -9.72113554098541E-08  8.91684290726808E+00
 cg2d: Sum(rhs),rhsMax =  -9.72787574937684E-08  8.91069264633776E+00
 cg2d: Sum(rhs),rhsMax =  -9.73459535202892E-08  8.90453228797114E+00
 cg2d: Sum(rhs),rhsMax =  -9.74135971887335E-08  8.89836249714105E+00
 cg2d: Sum(rhs),rhsMax =  -9.74817027099562E-08  8.89218368115518E+00
 cg2d: Sum(rhs),rhsMax =  -9.75496519117769E-08  8.88599608996445E+00
 cg2d: Sum(rhs),rhsMax =  -9.76179350686834E-08  8.87979980032782E+00
 cg2d: Sum(rhs),rhsMax =  -9.76860476953334E-08  8.87359466021019E+00
 cg2d: Sum(rhs),rhsMax =  -9.77549490244201E-08  8.86737992136571E+00
 cg2d: Sum(rhs),rhsMax =  -9.78237792992331E-08  8.86115449881272E+00
 cg2d: Sum(rhs),rhsMax =  -9.78925882577641E-08  8.85491714939279E+00
 cg2d: Sum(rhs),rhsMax =  -9.79620651264668E-08  8.84866650814923E+00
 cg2d: Sum(rhs),rhsMax =  -9.80318830556826E-08  8.84239908862083E+00
 cg2d: Sum(rhs),rhsMax =  -9.81016583523342E-08  8.83611205511795E+00
 EXTERNAL_FIELDS_LOAD, it=   3600510 : Reading new data, i0,i1=    9   10 (prev=    8    9 )
 DIC_FIELDS_LOAD, it=   3600510 : Reading new data, i0,i1=    9   10 (prev=    8    9 )
 cg2d: Sum(rhs),rhsMax =  -9.81721868242857E-08  8.82980306034887E+00
 cg2d: Sum(rhs),rhsMax =  -9.82427721396562E-08  8.82347164349139E+00
 cg2d: Sum(rhs),rhsMax =  -9.83135990395567E-08  8.81711735596894E+00
 cg2d: Sum(rhs),rhsMax =  -9.83851720093298E-08  8.81074020360017E+00
 cg2d: Sum(rhs),rhsMax =  -9.84564962891454E-08  8.80434063629974E+00
 cg2d: Sum(rhs),rhsMax =  -9.85286376931072E-08  8.79791959804717E+00
 cg2d: Sum(rhs),rhsMax =  -9.86011414738641E-08  8.79147850051498E+00
 cg2d: Sum(rhs),rhsMax =  -9.86734960406466E-08  8.78501923806664E+00
 cg2d: Sum(rhs),rhsMax =  -9.87464900958912E-08  8.77854412431977E+00
 cg2d: Sum(rhs),rhsMax =  -9.88197470519481E-08  8.77205585109022E+00
 cg2d: Sum(rhs),rhsMax =  -9.88934729662105E-08  8.76555740298602E+00
 cg2d: Sum(rhs),rhsMax =  -9.89669146633787E-08  8.75905198910442E+00
 cg2d: Sum(rhs),rhsMax =  -9.90407258427695E-08  8.75254295465281E+00
 cg2d: Sum(rhs),rhsMax =  -9.91145014950234E-08  8.74603368964057E+00
 cg2d: Sum(rhs),rhsMax =  -9.91886466295000E-08  8.73952755244439E+00
 cg2d: Sum(rhs),rhsMax =  -9.92623157003436E-08  8.73302782624689E+00
 cg2d: Sum(rhs),rhsMax =  -9.93363400425551E-08  8.72653766294564E+00
 cg2d: Sum(rhs),rhsMax =  -9.94104141227581E-08  8.72006002219781E+00
 cg2d: Sum(rhs),rhsMax =  -9.94844668866790E-08  8.71359759621992E+00
 cg2d: Sum(rhs),rhsMax =  -9.95583775420528E-08  8.70715278372291E+00
 cg2d: Sum(rhs),rhsMax =  -9.96322597757171E-08  8.70072771032166E+00
 cg2d: Sum(rhs),rhsMax =  -9.97059714791249E-08  8.69432422374462E+00
 cg2d: Sum(rhs),rhsMax =  -9.97792923840279E-08  8.68794392220557E+00
 cg2d: Sum(rhs),rhsMax =  -9.98527127649140E-08  8.68159287495532E+00
 cg2d: Sum(rhs),rhsMax =  -9.99256144496030E-08  8.67527594836007E+00
 cg2d: Sum(rhs),rhsMax =  -9.99983740257449E-08  8.66899648662334E+00
 cg2d: Sum(rhs),rhsMax =  -1.00070764119664E-07  8.66275674813775E+00
 cg2d: Sum(rhs),rhsMax =  -1.00142791836788E-07  8.65655808426570E+00
 cg2d: Sum(rhs),rhsMax =  -1.00214123222031E-07  8.65040095427649E+00
 cg2d: Sum(rhs),rhsMax =  -1.00285419080137E-07  8.64428511771589E+00
 cg2d: Sum(rhs),rhsMax =  -1.00356203347474E-07  8.63820779072895E+00
 cg2d: Sum(rhs),rhsMax =  -1.00426881033400E-07  8.63216610266613E+00
 cg2d: Sum(rhs),rhsMax =  -1.00497182131676E-07  8.62615664857018E+00
 cg2d: Sum(rhs),rhsMax =  -1.00566929006618E-07  8.62017549344574E+00
 cg2d: Sum(rhs),rhsMax =  -1.00636839306389E-07  8.61421824973427E+00
 cg2d: Sum(rhs),rhsMax =  -1.00706515127058E-07  8.60828014305759E+00
 cg2d: Sum(rhs),rhsMax =  -1.00776318845419E-07  8.60235619466164E+00
 cg2d: Sum(rhs),rhsMax =  -1.00845916506387E-07  8.59644141396147E+00
 cg2d: Sum(rhs),rhsMax =  -1.00915485745645E-07  8.59053104903554E+00
 cg2d: Sum(rhs),rhsMax =  -1.00985261042297E-07  8.58462072248315E+00
 cg2d: Sum(rhs),rhsMax =  -1.01055491086299E-07  8.57870663714626E+00
 cg2d: Sum(rhs),rhsMax =  -1.01125422702353E-07  8.57278566865890E+00
 cg2d: Sum(rhs),rhsMax =  -1.01195716695202E-07  8.56685532083521E+00
 cg2d: Sum(rhs),rhsMax =  -1.01266216745444E-07  8.56091374139585E+00
 cg2d: Sum(rhs),rhsMax =  -1.01337192859319E-07  8.55495975914983E+00
 cg2d: Sum(rhs),rhsMax =  -1.01408346608878E-07  8.54899275863313E+00
 cg2d: Sum(rhs),rhsMax =  -1.01479535885574E-07  8.54301265247851E+00
 cg2d: Sum(rhs),rhsMax =  -1.01551435705005E-07  8.53701978569626E+00
 cg2d: Sum(rhs),rhsMax =  -1.01622724457684E-07  8.53101490472480E+00
 cg2d: Sum(rhs),rhsMax =  -1.01695292187287E-07  8.52499919193590E+00
 cg2d: Sum(rhs),rhsMax =  -1.01767554383514E-07  8.51897431341724E+00
 cg2d: Sum(rhs),rhsMax =  -1.01840242905382E-07  8.51294235247767E+00
 cg2d: Sum(rhs),rhsMax =  -1.01912846162122E-07  8.50690569200869E+00
 cg2d: Sum(rhs),rhsMax =  -1.01985413891725E-07  8.50087005576702E+00
 cg2d: Sum(rhs),rhsMax =  -1.02058450579534E-07  8.49484015017416E+00
 cg2d: Sum(rhs),rhsMax =  -1.02131188839394E-07  8.48882063673028E+00
 cg2d: Sum(rhs),rhsMax =  -1.02203856044980E-07  8.48281607441673E+00
 cg2d: Sum(rhs),rhsMax =  -1.02276672464541E-07  8.47683086082370E+00
 cg2d: Sum(rhs),rhsMax =  -1.02349595465512E-07  8.47086915096995E+00
 cg2d: Sum(rhs),rhsMax =  -1.02421360281824E-07  8.46493476809303E+00
 EXTERNAL_FIELDS_LOAD, it=   3600570 : Reading new data, i0,i1=   10   11 (prev=    9   10 )
 DIC_FIELDS_LOAD, it=   3600570 : Reading new data, i0,i1=   10   11 (prev=    9   10 )
 cg2d: Sum(rhs),rhsMax =  -1.02493515896640E-07  8.45903109783263E+00
 cg2d: Sum(rhs),rhsMax =  -1.02564975179575E-07  8.45319648993583E+00
 cg2d: Sum(rhs),rhsMax =  -1.02634501786270E-07  8.44745634270964E+00
 cg2d: Sum(rhs),rhsMax =  -1.02703893389844E-07  8.44183524325516E+00
 cg2d: Sum(rhs),rhsMax =  -1.02770819410125E-07  8.43635626330932E+00
 cg2d: Sum(rhs),rhsMax =  -1.02836231974379E-07  8.43104036727980E+00
 cg2d: Sum(rhs),rhsMax =  -1.02899214482477E-07  8.42590597581903E+00
 cg2d: Sum(rhs),rhsMax =  -1.02960150627496E-07  8.42096861540595E+00
 cg2d: Sum(rhs),rhsMax =  -1.03018727770632E-07  8.41624063283881E+00
 cg2d: Sum(rhs),rhsMax =  -1.03074462742825E-07  8.41173099284368E+00
 cg2d: Sum(rhs),rhsMax =  -1.03127582917750E-07  8.40744522364360E+00
 cg2d: Sum(rhs),rhsMax =  -1.03177704602331E-07  8.40338548638234E+00
 cg2d: Sum(rhs),rhsMax =  -1.03225289649345E-07  8.39955071057647E+00
 cg2d: Sum(rhs),rhsMax =  -1.03270444640202E-07  8.39593686353065E+00
 cg2d: Sum(rhs),rhsMax =  -1.03312800092681E-07  8.39253726007720E+00
 cg2d: Sum(rhs),rhsMax =  -1.03352554958747E-07  8.38934286490718E+00
 cg2d: Sum(rhs),rhsMax =  -1.03389886874083E-07  8.38634267692018E+00
 cg2d: Sum(rhs),rhsMax =  -1.03425186637196E-07  8.38352418466840E+00
 cg2d: Sum(rhs),rhsMax =  -1.03458575040349E-07  8.38087384792736E+00
 cg2d: Sum(rhs),rhsMax =  -1.03489654179612E-07  8.37837764295235E+00
 cg2d: Sum(rhs),rhsMax =  -1.03519347760539E-07  8.37602165023152E+00
 cg2d: Sum(rhs),rhsMax =  -1.03547364460610E-07  8.37379265495454E+00
 cg2d: Sum(rhs),rhsMax =  -1.03573896126363E-07  8.37167859305842E+00
 cg2d: Sum(rhs),rhsMax =  -1.03599155920620E-07  8.36966841617237E+00
 cg2d: Sum(rhs),rhsMax =  -1.03623357006200E-07  8.36775262363169E+00
 cg2d: Sum(rhs),rhsMax =  -1.03646584648232E-07  8.36592322530019E+00
 cg2d: Sum(rhs),rhsMax =  -1.03668426731929E-07  8.36417370361670E+00
 cg2d: Sum(rhs),rhsMax =  -1.03689806962848E-07  8.36249893566327E+00
 cg2d: Sum(rhs),rhsMax =  -1.03710164012227E-07  8.36089512198643E+00
 cg2d: Sum(rhs),rhsMax =  -1.03729064448999E-07  8.35935972193128E+00
 cg2d: Sum(rhs),rhsMax =  -1.03747986202052E-07  8.35789132052859E+00
 cg2d: Sum(rhs),rhsMax =  -1.03765373182796E-07  8.35648953984663E+00
 cg2d: Sum(rhs),rhsMax =  -1.03782369365035E-07  8.35515503666620E+00
 cg2d: Sum(rhs),rhsMax =  -1.03798733164240E-07  8.35388959337713E+00
 cg2d: Sum(rhs),rhsMax =  -1.03813491136862E-07  8.35269612989214E+00
 cg2d: Sum(rhs),rhsMax =  -1.03827638042731E-07  8.35157865319166E+00
 cg2d: Sum(rhs),rhsMax =  -1.03841280463257E-07  8.35054220321588E+00
 cg2d: Sum(rhs),rhsMax =  -1.03853331268056E-07  8.34959282244478E+00
 cg2d: Sum(rhs),rhsMax =  -1.03864024936229E-07  8.34873757212784E+00
 cg2d: Sum(rhs),rhsMax =  -1.03873794898846E-07  8.34798443944571E+00
 cg2d: Sum(rhs),rhsMax =  -1.03881951929452E-07  8.34734205444848E+00
 cg2d: Sum(rhs),rhsMax =  -1.03888730507151E-07  8.34681927427749E+00
 cg2d: Sum(rhs),rhsMax =  -1.03893782466002E-07  8.34642479662444E+00
 cg2d: Sum(rhs),rhsMax =  -1.03896695691219E-07  8.34616690162161E+00
 cg2d: Sum(rhs),rhsMax =  -1.03898251779810E-07  8.34605328416144E+00
 cg2d: Sum(rhs),rhsMax =  -1.03897747294468E-07  8.34609086201575E+00
 cg2d: Sum(rhs),rhsMax =  -1.03895416714295E-07  8.34628560159372E+00
 cg2d: Sum(rhs),rhsMax =  -1.03891132141598E-07  8.34664238294981E+00
 cg2d: Sum(rhs),rhsMax =  -1.03884730151549E-07  8.34716488141953E+00
 cg2d: Sum(rhs),rhsMax =  -1.03876232060429E-07  8.34785544920597E+00
 cg2d: Sum(rhs),rhsMax =  -1.03865339440290E-07  8.34871504733891E+00
 cg2d: Sum(rhs),rhsMax =  -1.03852393351644E-07  8.34974320296400E+00
 cg2d: Sum(rhs),rhsMax =  -1.03837578535604E-07  8.35093803633076E+00
 cg2d: Sum(rhs),rhsMax =  -1.03820866570459E-07  8.35229628921908E+00
 cg2d: Sum(rhs),rhsMax =  -1.03801575335183E-07  8.35381348895399E+00
 cg2d: Sum(rhs),rhsMax =  -1.03780770643880E-07  8.35548405560547E+00
 cg2d: Sum(rhs),rhsMax =  -1.03758168279455E-07  8.35730145035772E+00
 cg2d: Sum(rhs),rhsMax =  -1.03734052459004E-07  8.35925834161856E+00
 cg2d: Sum(rhs),rhsMax =  -1.03707641585515E-07  8.36134677020027E+00
 cg2d: Sum(rhs),rhsMax =  -1.03680264373907E-07  8.36355833544679E+00
 EXTERNAL_FIELDS_LOAD, it=   3600630 : Reading new data, i0,i1=   11   12 (prev=   10   11 )
 DIC_FIELDS_LOAD, it=   3600630 : Reading new data, i0,i1=   11   12 (prev=   10   11 )
 cg2d: Sum(rhs),rhsMax =  -1.03651167648877E-07  8.36588437297216E+00
 cg2d: Sum(rhs),rhsMax =  -1.03620983793462E-07  8.36829873825493E+00
 cg2d: Sum(rhs),rhsMax =  -1.03590167555012E-07  8.37078098256463E+00
 cg2d: Sum(rhs),rhsMax =  -1.03558832620365E-07  8.37331076990736E+00
 cg2d: Sum(rhs),rhsMax =  -1.03526986094948E-07  8.37586828475342E+00
 cg2d: Sum(rhs),rhsMax =  -1.03494969039275E-07  8.37843651347270E+00
 cg2d: Sum(rhs),rhsMax =  -1.03462959089029E-07  8.38100058596186E+00
 cg2d: Sum(rhs),rhsMax =  -1.03431759157502E-07  8.38354800119352E+00
 cg2d: Sum(rhs),rhsMax =  -1.03400431328282E-07  8.38606907281455E+00
 cg2d: Sum(rhs),rhsMax =  -1.03369536930131E-07  8.38855705740912E+00
 cg2d: Sum(rhs),rhsMax =  -1.03339182544460E-07  8.39100818777902E+00
 cg2d: Sum(rhs),rhsMax =  -1.03309091059600E-07  8.39342162927294E+00
 cg2d: Sum(rhs),rhsMax =  -1.03279326424399E-07  8.39579937673915E+00
 cg2d: Sum(rhs),rhsMax =  -1.03250158645096E-07  8.39814606298476E+00
 cg2d: Sum(rhs),rhsMax =  -1.03221587721691E-07  8.40046867037939E+00
 cg2d: Sum(rhs),rhsMax =  -1.03192640210636E-07  8.40277617859981E+00
 cg2d: Sum(rhs),rhsMax =  -1.03164317977189E-07  8.40507915533000E+00
 cg2d: Sum(rhs),rhsMax =  -1.03135583628955E-07  8.40738929078001E+00
 cg2d: Sum(rhs),rhsMax =  -1.03106465587643E-07  8.40971893982490E+00
 cg2d: Sum(rhs),rhsMax =  -1.03077603341717E-07  8.41208069021930E+00
 cg2d: Sum(rhs),rhsMax =  -1.03047760546815E-07  8.41448664736628E+00
 cg2d: Sum(rhs),rhsMax =  -1.03017328001442E-07  8.41694808963461E+00
 cg2d: Sum(rhs),rhsMax =  -1.02985850958248E-07  8.41947641344255E+00
 cg2d: Sum(rhs),rhsMax =  -1.02953762848301E-07  8.42209465677943E+00
 cg2d: Sum(rhs),rhsMax =  -1.02920779454507E-07  8.42481840011152E+00
 cg2d: Sum(rhs),rhsMax =  -1.02885756803062E-07  8.42766143831664E+00
 cg2d: Sum(rhs),rhsMax =  -1.02849760708068E-07  8.43063562227923E+00
 cg2d: Sum(rhs),rhsMax =  -1.02811505087175E-07  8.43375048923612E+00
 cg2d: Sum(rhs),rhsMax =  -1.02771743115682E-07  8.43701312183894E+00
 cg2d: Sum(rhs),rhsMax =  -1.02730268736195E-07  8.44042805498092E+00
 cg2d: Sum(rhs),rhsMax =  -1.02686364300553E-07  8.44399728026233E+00
 cg2d: Sum(rhs),rhsMax =  -1.02641237731405E-07  8.44772028674299E+00
 cg2d: Sum(rhs),rhsMax =  -1.02594057693750E-07  8.45159419183708E+00
 cg2d: Sum(rhs),rhsMax =  -1.02545079982974E-07  8.45561389463918E+00
 cg2d: Sum(rhs),rhsMax =  -1.02494418285914E-07  8.45977229544668E+00
 cg2d: Sum(rhs),rhsMax =  -1.02442626825905E-07  8.46406043486096E+00
 cg2d: Sum(rhs),rhsMax =  -1.02389186906748E-07  8.46846786249842E+00
 cg2d: Sum(rhs),rhsMax =  -1.02334411167249E-07  8.47298294092153E+00
 cg2d: Sum(rhs),rhsMax =  -1.02278569613645E-07  8.47759310010859E+00
 cg2d: Sum(rhs),rhsMax =  -1.02221783038203E-07  8.48228511495217E+00
 cg2d: Sum(rhs),rhsMax =  -1.02164435134000E-07  8.48704540520819E+00
 cg2d: Sum(rhs),rhsMax =  -1.02106639587873E-07  8.49186038102640E+00
 cg2d: Sum(rhs),rhsMax =  -1.02048161920720E-07  8.49671683330553E+00
 cg2d: Sum(rhs),rhsMax =  -1.01989222400789E-07  8.50160229731839E+00
 cg2d: Sum(rhs),rhsMax =  -1.01930119456028E-07  8.50650541756349E+00
 cg2d: Sum(rhs),rhsMax =  -1.01871734159431E-07  8.51141606286167E+00
 cg2d: Sum(rhs),rhsMax =  -1.01813114383731E-07  8.51632550458549E+00
 cg2d: Sum(rhs),rhsMax =  -1.01754352499484E-07  8.52122658728227E+00
 cg2d: Sum(rhs),rhsMax =  -1.01695938781177E-07  8.52611387363114E+00
 cg2d: Sum(rhs),rhsMax =  -1.01637908755947E-07  8.53098375482528E+00
 cg2d: Sum(rhs),rhsMax =  -1.01580091893538E-07  8.53583450654913E+00
 cg2d: Sum(rhs),rhsMax =  -1.01522516615660E-07  8.54066629803099E+00
 cg2d: Sum(rhs),rhsMax =  -1.01465325030858E-07  8.54548114840508E+00
 cg2d: Sum(rhs),rhsMax =  -1.01408510033707E-07  8.55028281355603E+00
 cg2d: Sum(rhs),rhsMax =  -1.01351844250530E-07  8.55507663782142E+00
 cg2d: Sum(rhs),rhsMax =  -1.01294901355686E-07  8.55986938569464E+00
 cg2d: Sum(rhs),rhsMax =  -1.01238242677937E-07  8.56466907941720E+00
 cg2d: Sum(rhs),rhsMax =  -1.01181711897880E-07  8.56948481849350E+00
 cg2d: Sum(rhs),rhsMax =  -1.01124427942523E-07  8.57432655386490E+00
 cg2d: Sum(rhs),rhsMax =  -1.01066994773191E-07  8.57920482306538E+00
 EXTERNAL_FIELDS_LOAD, it=   3600690 : Reading new data, i0,i1=   12    1 (prev=   11   12 )
 DIC_FIELDS_LOAD, it=   3600690 : Reading new data, i0,i1=   12    1 (prev=   11   12 )
 cg2d: Sum(rhs),rhsMax =  -1.01009099751082E-07  8.58413045456863E+00
 cg2d: Sum(rhs),rhsMax =  -1.00950970249869E-07  8.58908772075261E+00
 cg2d: Sum(rhs),rhsMax =  -1.00892201260194E-07  8.59407113784658E+00
 cg2d: Sum(rhs),rhsMax =  -1.00833979388426E-07  8.59907533504329E+00
 cg2d: Sum(rhs),rhsMax =  -1.00775366718153E-07  8.60409527812640E+00
 cg2d: Sum(rhs),rhsMax =  -1.00716533779632E-07  8.60912639608676E+00
 cg2d: Sum(rhs),rhsMax =  -1.00657807422522E-07  8.61416467727663E+00
 cg2d: Sum(rhs),rhsMax =  -1.00599194752249E-07  8.61920670304104E+00
 cg2d: Sum(rhs),rhsMax =  -1.00540219705181E-07  8.62424959025954E+00
 cg2d: Sum(rhs),rhsMax =  -1.00481713616318E-07  8.62929084710763E+00
 cg2d: Sum(rhs),rhsMax =  -1.00423278581729E-07  8.63432823431656E+00
 cg2d: Sum(rhs),rhsMax =  -1.00365085131671E-07  8.63935967110789E+00
 cg2d: Sum(rhs),rhsMax =  -1.00306984052168E-07  8.64438326330631E+00
 cg2d: Sum(rhs),rhsMax =  -1.00248698231553E-07  8.64939736363611E+00
 cg2d: Sum(rhs),rhsMax =  -1.00191144269957E-07  8.65440069908248E+00
 cg2d: Sum(rhs),rhsMax =  -1.00133568992078E-07  8.65939260929048E+00
 cg2d: Sum(rhs),rhsMax =  -1.00076100295610E-07  8.66437312037654E+00
 cg2d: Sum(rhs),rhsMax =  -1.00019036608501E-07  8.66934290835576E+00
 cg2d: Sum(rhs),rhsMax =  -9.99617597585711E-08  8.67430225124478E+00
 cg2d: Sum(rhs),rhsMax =  -9.99047102823170E-08  8.67925494682890E+00
 cg2d: Sum(rhs),rhsMax =  -9.98482363456787E-08  8.68420608713978E+00
 cg2d: Sum(rhs),rhsMax =  -9.97913716105359E-08  8.68916081980566E+00
 cg2d: Sum(rhs),rhsMax =  -9.97343434505638E-08  8.69412416784580E+00
 cg2d: Sum(rhs),rhsMax =  -9.96773295014464E-08  8.69910085245627E+00
 cg2d: Sum(rhs),rhsMax =  -9.96202871306195E-08  8.70409517445086E+00
 cg2d: Sum(rhs),rhsMax =  -9.95629250155616E-08  8.70911095741398E+00
 cg2d: Sum(rhs),rhsMax =  -9.95059110664442E-08  8.71415148969223E+00
 cg2d: Sum(rhs),rhsMax =  -9.94480160443345E-08  8.71921930590513E+00
 cg2d: Sum(rhs),rhsMax =  -9.93902702361993E-08  8.72431607432102E+00
 cg2d: Sum(rhs),rhsMax =  -9.93317215147727E-08  8.72944261226047E+00
 cg2d: Sum(rhs),rhsMax =  -9.92735280647139E-08  8.73459893266904E+00
 cg2d: Sum(rhs),rhsMax =  -9.92147448641845E-08  8.73978430818157E+00
 cg2d: Sum(rhs),rhsMax =  -9.91560966667748E-08  8.74499735837366E+00
 cg2d: Sum(rhs),rhsMax =  -9.90966526615011E-08  8.75023614706347E+00
 cg2d: Sum(rhs),rhsMax =  -9.90366970654577E-08  8.75549829188909E+00
 cg2d: Sum(rhs),rhsMax =  -9.89772743764661E-08  8.76078107848702E+00
 cg2d: Sum(rhs),rhsMax =  -9.89177024735000E-08  8.76608155580086E+00
 cg2d: Sum(rhs),rhsMax =  -9.88579742511320E-08  8.77139664107964E+00
 cg2d: Sum(rhs),rhsMax =  -9.87977060162848E-08  8.77672320795606E+00
 cg2d: Sum(rhs),rhsMax =  -9.87382264838743E-08  8.78205816635757E+00
(PID.TID 0000.0001) Did not write pickup because writePickupAtEnd = FALSE
 DIC_SURFFORCING_INIT, it=   3600000 : Reading new data, i0,i1=   12    1
 QQ: pCO2 approximation method
 QQ first guess pH 8.2869849781645275,  7.129213793781922,  34.1535348423009,  2.0282,  5.43799999999999991E-4,  8.08490416966378689E-3,  2.3086000000000002
(PID.TID 0000.0001) // =======================================================
(PID.TID 0000.0001) // Model current state
(PID.TID 0000.0001) // =======================================================
(PID.TID 0000.0001) 
 EXTERNAL_FIELDS_LOAD, it=   3600000 : Reading new data, i0,i1=   12    1 (prev=   12    0 )
 DIC_FIELDS_LOAD, it=   3600000 : Reading new data, i0,i1=   12    1 (prev=   12    0 )
 cg2d: Sum(rhs),rhsMax =  -9.92433868418630E-08  8.73439671821315E+00
 cg2d: Sum(rhs),rhsMax =  -9.91844260056496E-08  8.73957958587058E+00
 cg2d: Sum(rhs),rhsMax =  -9.91252449011881E-08  8.74478969091806E+00
 cg2d: Sum(rhs),rhsMax =  -9.90665185440776E-08  8.75002495477880E+00
 cg2d: Sum(rhs),rhsMax =  -9.90068542705558E-08  8.75528284057604E+00
 cg2d: Sum(rhs),rhsMax =  -9.89473534218632E-08  8.76056047500076E+00
 cg2d: Sum(rhs),rhsMax =  -9.88878241514612E-08  8.76585475900637E+00
 cg2d: Sum(rhs),rhsMax =  -9.88279893476829E-08  8.77116249138180E+00
 cg2d: Sum(rhs),rhsMax =  -9.87682469144602E-08  8.77648047471154E+00
 cg2d: Sum(rhs),rhsMax =  -9.87087602766223E-08  8.78180560756084E+00
 cg2d: Sum(rhs),rhsMax =  -9.86489112619893E-08  8.78713494778165E+00
 cg2d: Sum(rhs),rhsMax =  -9.85891404070571E-08  8.79246575399440E+00
 cg2d: Sum(rhs),rhsMax =  -9.85293340249882E-08  8.79779549299699E+00
 cg2d: Sum(rhs),rhsMax =  -9.84700747608258E-08  8.80312181092759E+00
 cg2d: Sum(rhs),rhsMax =  -9.84108581292276E-08  8.80844249631459E+00
 cg2d: Sum(rhs),rhsMax =  -9.83516486030567E-08  8.81375547068360E+00
 cg2d: Sum(rhs),rhsMax =  -9.82926522397065E-08  8.81905885446822E+00
 cg2d: Sum(rhs),rhsMax =  -9.82337553523394E-08  8.82435106608147E+00
 cg2d: Sum(rhs),rhsMax =  -9.81751568929212E-08  8.82963093738125E+00
 cg2d: Sum(rhs),rhsMax =  -9.81166650149135E-08  8.83489782452132E+00
 cg2d: Sum(rhs),rhsMax =  -9.80585213028462E-08  8.84015168145881E+00
 cg2d: Sum(rhs),rhsMax =  -9.80007470730015E-08  8.84539306572338E+00
 cg2d: Sum(rhs),rhsMax =  -9.79429586323022E-08  8.85062306296846E+00
 cg2d: Sum(rhs),rhsMax =  -9.78853904598509E-08  8.85584316140559E+00
 cg2d: Sum(rhs),rhsMax =  -9.78280425556477E-08  8.86105508303604E+00
 cg2d: Sum(rhs),rhsMax =  -9.77709291305473E-08  8.86626061391844E+00
 cg2d: Sum(rhs),rhsMax =  -9.77132472712583E-08  8.87146147123075E+00
 cg2d: Sum(rhs),rhsMax =  -9.76563327981239E-08  8.87665923110881E+00
 cg2d: Sum(rhs),rhsMax =  -9.75990843699037E-08  8.88185530584736E+00
 cg2d: Sum(rhs),rhsMax =  -9.75420704207863E-08  8.88705095973601E+00
 EXTERNAL_FIELDS_LOAD, it=   3600030 : Reading new data, i0,i1=    1    2 (prev=   12    1 )
 DIC_FIELDS_LOAD, it=   3600030 : Reading new data, i0,i1=    1    2 (prev=   12    1 )
 cg2d: Sum(rhs),rhsMax =  -9.74853406887632E-08  8.89224735691429E+00
 cg2d: Sum(rhs),rhsMax =  -9.74287814869967E-08  8.89742706375180E+00
 cg2d: Sum(rhs),rhsMax =  -9.73723857100595E-08  8.90258000132907E+00
 cg2d: Sum(rhs),rhsMax =  -9.73164659967551E-08  8.90769672951691E+00
 cg2d: Sum(rhs),rhsMax =  -9.72612284044772E-08  8.91276878246959E+00
 cg2d: Sum(rhs),rhsMax =  -9.72070637317302E-08  8.91778889429735E+00
 cg2d: Sum(rhs),rhsMax =  -9.71530482729577E-08  8.92275113682099E+00
 cg2d: Sum(rhs),rhsMax =  -9.70993241367069E-08  8.92765100404361E+00
 cg2d: Sum(rhs),rhsMax =  -9.70471916161841E-08  8.93248545016401E+00
 cg2d: Sum(rhs),rhsMax =  -9.69955280538670E-08  8.93725287491615E+00
 cg2d: Sum(rhs),rhsMax =  -9.69441273923621E-08  8.94195305183593E+00
 cg2d: Sum(rhs),rhsMax =  -9.68941833434656E-08  8.94658701582531E+00
 cg2d: Sum(rhs),rhsMax =  -9.68450208915783E-08  8.95115692214719E+00
 cg2d: Sum(rhs),rhsMax =  -9.67962705544778E-08  8.95566589123099E+00
 cg2d: Sum(rhs),rhsMax =  -9.67482165492584E-08  8.96011786358850E+00
 cg2d: Sum(rhs),rhsMax =  -9.67008020325011E-08  8.96451747891563E+00
 cg2d: Sum(rhs),rhsMax =  -9.66539346336504E-08  8.96886998187158E+00
 cg2d: Sum(rhs),rhsMax =  -9.66078843589457E-08  8.97318115409823E+00
 cg2d: Sum(rhs),rhsMax =  -9.65621254067628E-08  8.97745726495199E+00
 cg2d: Sum(rhs),rhsMax =  -9.65159685506478E-08  8.98170502198163E+00
 cg2d: Sum(rhs),rhsMax =  -9.64709272466280E-08  8.98593151889555E+00
 cg2d: Sum(rhs),rhsMax =  -9.64258006774799E-08  8.99014423145949E+00
 cg2d: Sum(rhs),rhsMax =  -9.63806954246138E-08  8.99435085408351E+00
 cg2d: Sum(rhs),rhsMax =  -9.63354978011921E-08  8.99855914272681E+00
 cg2d: Sum(rhs),rhsMax =  -9.62904493917449E-08  9.00277662786875E+00
 cg2d: Sum(rhs),rhsMax =  -9.62449746566563E-08  9.00700998220796E+00
 cg2d: Sum(rhs),rhsMax =  -9.61997557169525E-08  9.01126574761483E+00
 cg2d: Sum(rhs),rhsMax =  -9.61540180810516E-08  9.01555039729210E+00
 cg2d: Sum(rhs),rhsMax =  -9.61077120109621E-08  9.01986971435378E+00
 cg2d: Sum(rhs),rhsMax =  -9.60613775191632E-08  9.02422880815445E+00
 cg2d: Sum(rhs),rhsMax =  -9.60143182737738E-08  9.02863205182447E+00
 cg2d: Sum(rhs),rhsMax =  -9.59668398081703E-08  9.03308295193821E+00
 cg2d: Sum(rhs),rhsMax =  -9.59189492277801E-08  9.03758400719746E+00
 cg2d: Sum(rhs),rhsMax =  -9.58706323217484E-08  9.04213663854453E+00
 cg2d: Sum(rhs),rhsMax =  -9.58215622404168E-08  9.04674109185253E+00
 cg2d: Sum(rhs),rhsMax =  -9.57721724148541E-08  9.05139640217902E+00
 cg2d: Sum(rhs),rhsMax =  -9.57223775799321E-08  9.05610040614876E+00
 cg2d: Sum(rhs),rhsMax =  -9.56718224642827E-08  9.06084979109159E+00
 cg2d: Sum(rhs),rhsMax =  -9.56211039238042E-08  9.06564017672268E+00
 cg2d: Sum(rhs),rhsMax =  -9.55700798499493E-08  9.07046622792088E+00
 cg2d: Sum(rhs),rhsMax =  -9.55189918272481E-08  9.07532179655311E+00
 cg2d: Sum(rhs),rhsMax =  -9.54672145780933E-08  9.08020008054443E+00
 cg2d: Sum(rhs),rhsMax =  -9.54156860188959E-08  9.08509379067778E+00
 cg2d: Sum(rhs),rhsMax =  -9.53640864054250E-08  9.08999532389517E+00
 cg2d: Sum(rhs),rhsMax =  -9.53120391500306E-08  9.09489685062687E+00
 cg2d: Sum(rhs),rhsMax =  -9.52604963799786E-08  9.09979078670731E+00
 cg2d: Sum(rhs),rhsMax =  -9.52091738781746E-08  9.10466952325132E+00
 cg2d: Sum(rhs),rhsMax =  -9.51581995423112E-08  9.10952586151125E+00
 cg2d: Sum(rhs),rhsMax =  -9.51075378452515E-08  9.11435305322486E+00
 cg2d: Sum(rhs),rhsMax =  -9.50568974644739E-08  9.11914489544444E+00
 cg2d: Sum(rhs),rhsMax =  -9.50070173644235E-08  9.12389583482653E+00
 cg2d: Sum(rhs),rhsMax =  -9.49582670273230E-08  9.12860106773695E+00
 cg2d: Sum(rhs),rhsMax =  -9.49094669522310E-08  9.13325671324743E+00
 cg2d: Sum(rhs),rhsMax =  -9.48612637330370E-08  9.13785989332165E+00
 cg2d: Sum(rhs),rhsMax =  -9.48139060596986E-08  9.14240888612431E+00
 cg2d: Sum(rhs),rhsMax =  -9.47671381368309E-08  9.14690322805975E+00
 cg2d: Sum(rhs),rhsMax =  -9.47210025969980E-08  9.15134376400067E+00
 cg2d: Sum(rhs),rhsMax =  -9.46753857533622E-08  9.15573262291172E+00
 cg2d: Sum(rhs),rhsMax =  -9.46305078741716E-08  9.16007311317651E+00
 cg2d: Sum(rhs),rhsMax =  -9.45855020972886E-08  9.16436954661381E+00
 EXTERNAL_FIELDS_LOAD, it=   3600090 : Reading new data, i0,i1=    2    3 (prev=    1    2 )
 DIC_FIELDS_LOAD, it=   3600090 : Reading new data, i0,i1=    2    3 (prev=    1    2 )
 cg2d: Sum(rhs),rhsMax =  -9.45416047670733E-08  9.16862700792054E+00
 cg2d: Sum(rhs),rhsMax =  -9.44977784911316E-08  9.17286965792043E+00
 cg2d: Sum(rhs),rhsMax =  -9.44538882663437E-08  9.17711460232796E+00
 cg2d: Sum(rhs),rhsMax =  -9.44097777733077E-08  9.18137827264839E+00
 cg2d: Sum(rhs),rhsMax =  -9.43655606988614E-08  9.18567586102450E+00
 cg2d: Sum(rhs),rhsMax =  -9.43208533499273E-08  9.19002086507332E+00
 cg2d: Sum(rhs),rhsMax =  -9.42755065125311E-08  9.19442473147613E+00
 cg2d: Sum(rhs),rhsMax =  -9.42294988703907E-08  9.19889660310093E+00
 cg2d: Sum(rhs),rhsMax =  -9.41831217460276E-08  9.20344317156002E+00
 cg2d: Sum(rhs),rhsMax =  -9.41357711781166E-08  9.20806863385625E+00
 cg2d: Sum(rhs),rhsMax =  -9.40875679589226E-08  9.21277472508850E+00
 cg2d: Sum(rhs),rhsMax =  -9.40387323566938E-08  9.21756082935263E+00
 cg2d: Sum(rhs),rhsMax =  -9.39891506845925E-08  9.22242415169496E+00
 cg2d: Sum(rhs),rhsMax =  -9.39387589937724E-08  9.22735992735964E+00
 cg2d: Sum(rhs),rhsMax =  -9.38874578082505E-08  9.23236166048178E+00
 cg2d: Sum(rhs),rhsMax =  -9.38360713576003E-08  9.23742136926884E+00
 cg2d: Sum(rhs),rhsMax =  -9.37847204340869E-08  9.24252982829311E+00
 cg2d: Sum(rhs),rhsMax =  -9.37326518624104E-08  9.24767682825910E+00
 cg2d: Sum(rhs),rhsMax =  -9.36799651185538E-08  9.25285135651627E+00
 cg2d: Sum(rhs),rhsMax =  -9.36278468088858E-08  9.25804181556396E+00
 cg2d: Sum(rhs),rhsMax =  -9.35753803332773E-08  9.26323624437734E+00
 cg2d: Sum(rhs),rhsMax =  -9.35233543941649E-08  9.26842252954541E+00
 cg2d: Sum(rhs),rhsMax =  -9.34712076627875E-08  9.27358855590945E+00
 cg2d: Sum(rhs),rhsMax =  -9.34198851609835E-08  9.27872221865362E+00
 cg2d: Sum(rhs),rhsMax =  -9.33687331894362E-08  9.28381269175841E+00
 cg2d: Sum(rhs),rhsMax =  -9.33183130769066E-08  9.28884990364347E+00
 cg2d: Sum(rhs),rhsMax =  -9.32684542931383E-08  9.29382460831193E+00
 cg2d: Sum(rhs),rhsMax =  -9.32194410552256E-08  9.29872876125425E+00
 cg2d: Sum(rhs),rhsMax =  -9.31711383600486E-08  9.30355578941157E+00
 cg2d: Sum(rhs),rhsMax =  -9.31240364820951E-08  9.30830071441787E+00
 cg2d: Sum(rhs),rhsMax =  -9.30773893514925E-08  9.31296016039586E+00
 cg2d: Sum(rhs),rhsMax =  -9.30318719838397E-08  9.31753230345820E+00
 cg2d: Sum(rhs),rhsMax =  -9.29872783217434E-08  9.32201677457960E+00
 cg2d: Sum(rhs),rhsMax =  -9.29437931063148E-08  9.32641453687162E+00
 cg2d: Sum(rhs),rhsMax =  -9.29007910599466E-08  9.33072777407330E+00
 cg2d: Sum(rhs),rhsMax =  -9.28590253579387E-08  9.33495977832897E+00
 cg2d: Sum(rhs),rhsMax =  -9.28177001924269E-08  9.33911483571782E+00
 cg2d: Sum(rhs),rhsMax =  -9.27770358316593E-08  9.34319809772528E+00
 cg2d: Sum(rhs),rhsMax =  -9.27373591252945E-08  9.34721542637213E+00
 cg2d: Sum(rhs),rhsMax =  -9.26982295368362E-08  9.35117321728378E+00
 cg2d: Sum(rhs),rhsMax =  -9.26594978523099E-08  9.35507820898651E+00
 cg2d: Sum(rhs),rhsMax =  -9.26212777585533E-08  9.35893728101038E+00
 cg2d: Sum(rhs),rhsMax =  -9.25836900478316E-08  9.36275724876052E+00
 cg2d: Sum(rhs),rhsMax =  -9.25467347201447E-08  9.36654466497940E+00
 cg2d: Sum(rhs),rhsMax =  -9.25093388559617E-08  9.37030563739009E+00
 cg2d: Sum(rhs),rhsMax =  -9.24723693174201E-08  9.37404566529748E+00
 cg2d: Sum(rhs),rhsMax =  -9.24358261045199E-08  9.37776950669782E+00
 cg2d: Sum(rhs),rhsMax =  -9.23998015878169E-08  9.38148107939576E+00
 cg2d: Sum(rhs),rhsMax =  -9.23633649563271E-08  9.38518340080342E+00
 cg2d: Sum(rhs),rhsMax =  -9.23271628039402E-08  9.38887856431341E+00
 cg2d: Sum(rhs),rhsMax =  -9.22907545941598E-08  9.39256775253961E+00
 cg2d: Sum(rhs),rhsMax =  -9.22549361348501E-08  9.39625127829926E+00
 cg2d: Sum(rhs),rhsMax =  -9.22186487173349E-08  9.39992865313115E+00
 cg2d: Sum(rhs),rhsMax =  -9.21831713185384E-08  9.40359867110262E+00
 cg2d: Sum(rhs),rhsMax =  -9.21473457538013E-08  9.40725949891390E+00
 cg2d: Sum(rhs),rhsMax =  -9.21119038821416E-08  9.41090875978471E+00
 cg2d: Sum(rhs),rhsMax =  -9.20763412182168E-08  9.41454361858659E+00
 cg2d: Sum(rhs),rhsMax =  -9.20410343496769E-08  9.41816086827301E+00
 cg2d: Sum(rhs),rhsMax =  -9.20060685416502E-08  9.42175701532902E+00
 cg2d: Sum(rhs),rhsMax =  -9.19711879987517E-08  9.42532836100955E+00
 EXTERNAL_FIELDS_LOAD, it=   3600150 : Reading new data, i0,i1=    3    4 (prev=    2    3 )
 DIC_FIELDS_LOAD, it=   3600150 : Reading new data, i0,i1=    3    4 (prev=    2    3 )
 cg2d: Sum(rhs),rhsMax =  -9.19367622032041E-08  9.42887108055882E+00
 cg2d: Sum(rhs),rhsMax =  -9.19030327395376E-08  9.43235832256638E+00
 cg2d: Sum(rhs),rhsMax =  -9.18696727580937E-08  9.43577294710938E+00
 cg2d: Sum(rhs),rhsMax =  -9.18375349101552E-08  9.43909901719340E+00
 cg2d: Sum(rhs),rhsMax =  -9.18056457521743E-08  9.44232226351574E+00
 cg2d: Sum(rhs),rhsMax =  -9.17754618967592E-08  9.44543045713848E+00
 cg2d: Sum(rhs),rhsMax =  -9.17468696570722E-08  9.44841368652191E+00
 cg2d: Sum(rhs),rhsMax =  -9.17188671678559E-08  9.45126453300903E+00
 cg2d: Sum(rhs),rhsMax =  -9.16929749905648E-08  9.45397814472091E+00
 cg2d: Sum(rhs),rhsMax =  -9.16680278351123E-08  9.45655223330268E+00
 cg2d: Sum(rhs),rhsMax =  -9.16445941356869E-08  9.45898700078271E+00
 cg2d: Sum(rhs),rhsMax =  -9.16223754643397E-08  9.46128500172268E+00
 cg2d: Sum(rhs),rhsMax =  -9.16011231311131E-08  9.46345095767279E+00
 cg2d: Sum(rhs),rhsMax =  -9.15811568802383E-08  9.46549153513779E+00
 cg2d: Sum(rhs),rhsMax =  -9.15625619768434E-08  9.46741508859273E+00
 cg2d: Sum(rhs),rhsMax =  -9.15451252581079E-08  9.46923137659912E+00
 cg2d: Sum(rhs),rhsMax =  -9.15285980340741E-08  9.47095124324780E+00
 cg2d: Sum(rhs),rhsMax =  -9.15126108225195E-08  9.47258633929544E+00
 cg2d: Sum(rhs),rhsMax =  -9.14974762622478E-08  9.47414881667898E+00
 cg2d: Sum(rhs),rhsMax =  -9.14831588261222E-08  9.47565102854520E+00
 cg2d: Sum(rhs),rhsMax =  -9.14691185016636E-08  9.47710524161440E+00
 cg2d: Sum(rhs),rhsMax =  -9.14552913400257E-08  9.47852337330871E+00
 cg2d: Sum(rhs),rhsMax =  -9.14417910280463E-08  9.47991675839448E+00
 cg2d: Sum(rhs),rhsMax =  -9.14288023068366E-08  9.48129594936036E+00
 cg2d: Sum(rhs),rhsMax =  -9.14153162057119E-08  9.48267055268677E+00
 cg2d: Sum(rhs),rhsMax =  -9.14016951014673E-08  9.48404910672501E+00
 cg2d: Sum(rhs),rhsMax =  -9.13883866360266E-08  9.48543898881096E+00
 cg2d: Sum(rhs),rhsMax =  -9.13749147457565E-08  9.48684634838855E+00
 cg2d: Sum(rhs),rhsMax =  -9.13611231112554E-08  9.48827608016959E+00
 cg2d: Sum(rhs),rhsMax =  -9.13465854068818E-08  9.48973182637241E+00
 cg2d: Sum(rhs),rhsMax =  -9.13324456064402E-08  9.49121598932757E+00
 cg2d: Sum(rhs),rhsMax =  -9.13176805283911E-08  9.49272976482376E+00
 cg2d: Sum(rhs),rhsMax =  -9.13029793991882E-08  9.49427318407705E+00
 cg2d: Sum(rhs),rhsMax =  -9.12876600978052E-08  9.49584517202971E+00
 cg2d: Sum(rhs),rhsMax =  -9.12722768475760E-08  9.49744362566448E+00
 cg2d: Sum(rhs),rhsMax =  -9.12563962174318E-08  9.49906550905340E+00
 cg2d: Sum(rhs),rhsMax =  -9.12406292741252E-08  9.50070696299551E+00
 cg2d: Sum(rhs),rhsMax =  -9.12245567974423E-08  9.50236342680402E+00
 cg2d: Sum(rhs),rhsMax =  -9.12086122184519E-08  9.50402976802920E+00
 cg2d: Sum(rhs),rhsMax =  -9.11920636781360E-08  9.50570042893596E+00
 cg2d: Sum(rhs),rhsMax =  -9.11760835720088E-08  9.50736956748404E+00
 cg2d: Sum(rhs),rhsMax =  -9.11599897790438E-08  9.50903122489705E+00
 cg2d: Sum(rhs),rhsMax =  -9.11439812512072E-08  9.51067944299842E+00
 cg2d: Sum(rhs),rhsMax =  -9.11286619498242E-08  9.51230836255520E+00
 cg2d: Sum(rhs),rhsMax =  -9.11128452685261E-08  9.51391232343393E+00
 cg2d: Sum(rhs),rhsMax =  -9.10978172896648E-08  9.51548598638282E+00
 cg2d: Sum(rhs),rhsMax =  -9.10825903588375E-08  9.51702443978652E+00
 cg2d: Sum(rhs),rhsMax =  -9.10679744947629E-08  9.51852327194360E+00
 cg2d: Sum(rhs),rhsMax =  -9.10538062726118E-08  9.51997861079381E+00
 cg2d: Sum(rhs),rhsMax =  -9.10403272769145E-08  9.52138713289450E+00
 cg2d: Sum(rhs),rhsMax =  -9.10271680254482E-08  9.52274605554116E+00
 cg2d: Sum(rhs),rhsMax =  -9.10143498344951E-08  9.52405313717331E+00
 cg2d: Sum(rhs),rhsMax =  -9.10022919242692E-08  9.52530666028232E+00
 cg2d: Sum(rhs),rhsMax =  -9.09905324419924E-08  9.52650541109617E+00
 cg2d: Sum(rhs),rhsMax =  -9.09794692915966E-08  9.52764864727963E+00
 cg2d: Sum(rhs),rhsMax =  -9.09689816808168E-08  9.52873605079492E+00
 cg2d: Sum(rhs),rhsMax =  -9.09588422359775E-08  9.52976767849440E+00
 cg2d: Sum(rhs),rhsMax =  -9.09493280687457E-08  9.53074391639987E+00
 cg2d: Sum(rhs),rhsMax =  -9.09404391791213E-08  9.53166530103624E+00
 cg2d: Sum(rhs),rhsMax =  -9.09316284491979E-08  9.53253252588939E+00
 EXTERNAL_FIELDS_LOAD, it=   3600210 : Reading new data, i0,i1=    4    5 (prev=    3    4 )
 DIC_FIELDS_LOAD, it=   3600210 : Reading new data, i0,i1=    4    5 (prev=    3    4 )
 cg2d: Sum(rhs),rhsMax =  -9.09236845814121E-08  9.53334634295211E+00
 cg2d: Sum(rhs),rhsMax =  -9.09162238826866E-08  9.53412016630968E+00
 cg2d: Sum(rhs),rhsMax =  -9.09088555545168E-08  9.53486144691540E+00
 cg2d: Sum(rhs),rhsMax =  -9.09020556605356E-08  9.53557668814411E+00
 cg2d: Sum(rhs),rhsMax =  -9.08950781308704E-08  9.53626990934916E+00
 cg2d: Sum(rhs),rhsMax =  -9.08885269268467E-08  9.53694479201801E+00
 cg2d: Sum(rhs),rhsMax =  -9.08819686173956E-08  9.53760402798875E+00
 cg2d: Sum(rhs),rhsMax =  -9.08758792661502E-08  9.53824943192211E+00
 cg2d: Sum(rhs),rhsMax =  -9.08692001644340E-08  9.53888215688552E+00
 cg2d: Sum(rhs),rhsMax =  -9.08633310814366E-08  9.53950304357000E+00
 cg2d: Sum(rhs),rhsMax =  -9.08575117364308E-08  9.54011304176576E+00
 cg2d: Sum(rhs),rhsMax =  -9.08516142317239E-08  9.54071301635899E+00
 cg2d: Sum(rhs),rhsMax =  -9.08458943627011E-08  9.54130322912294E+00
 cg2d: Sum(rhs),rhsMax =  -9.08400252797037E-08  9.54188272003942E+00
 cg2d: Sum(rhs),rhsMax =  -9.08349306882883E-08  9.54244934290944E+00
 cg2d: Sum(rhs),rhsMax =  -9.08295305634965E-08  9.54299999628384E+00
 cg2d: Sum(rhs),rhsMax =  -9.08241872821236E-08  9.54353092308816E+00
 cg2d: Sum(rhs),rhsMax =  -9.08189861092978E-08  9.54403796863502E+00
 cg2d: Sum(rhs),rhsMax =  -9.08142894218145E-08  9.54451678452915E+00
 cg2d: Sum(rhs),rhsMax =  -9.08097916862971E-08  9.54496303374895E+00
 cg2d: Sum(rhs),rhsMax =  -9.08056705384297E-08  9.54537256688658E+00
 cg2d: Sum(rhs),rhsMax =  -9.08016417611179E-08  9.54574155534994E+00
 cg2d: Sum(rhs),rhsMax =  -9.07979256226099E-08  9.54606657177462E+00
 cg2d: Sum(rhs),rhsMax =  -9.07952681927782E-08  9.54634467959792E+00
 cg2d: Sum(rhs),rhsMax =  -9.07924189164078E-08  9.54657345840157E+00
 cg2d: Sum(rhs),rhsMax =  -9.07902162339269E-08  9.54675102924543E+00
 cg2d: Sum(rhs),rhsMax =  -9.07886743561903E-08  9.54687605379506E+00
 cg2d: Sum(rhs),rhsMax =  -9.07877648614885E-08  9.54694771403842E+00
 cg2d: Sum(rhs),rhsMax =  -9.07869193156330E-08  9.54696566951997E+00
 cg2d: Sum(rhs),rhsMax =  -9.07865995714019E-08  9.54692999068711E+00
 cg2d: Sum(rhs),rhsMax =  -9.07872106381546E-08  9.54684108541375E+00
 cg2d: Sum(rhs),rhsMax =  -9.07884682987969E-08  9.54669963264824E+00
 cg2d: Sum(rhs),rhsMax =  -9.07898467517043E-08  9.54650651972953E+00
 cg2d: Sum(rhs),rhsMax =  -9.07915449488428E-08  9.54626274758502E+00
 cg2d: Sum(rhs),rhsMax =  -9.07941455352557E-08  9.54596935750525E+00
 cg2d: Sum(rhs),rhsMax =  -9.07970800767544E-08  9.54562738075971E+00
 cg2d: Sum(rhs),rhsMax =  -9.08000501453898E-08  9.54523778248193E+00
 cg2d: Sum(rhs),rhsMax =  -9.08038089164620E-08  9.54480140259877E+00
 cg2d: Sum(rhs),rhsMax =  -9.08078732209106E-08  9.54431888382345E+00
 cg2d: Sum(rhs),rhsMax =  -9.08128896526250E-08  9.54379063440704E+00
 cg2d: Sum(rhs),rhsMax =  -9.08179274006216E-08  9.54321682610369E+00
 cg2d: Sum(rhs),rhsMax =  -9.08231072571652E-08  9.54259741627488E+00
 cg2d: Sum(rhs),rhsMax =  -9.08294239820862E-08  9.54193218180504E+00
 cg2d: Sum(rhs),rhsMax =  -9.08357407070071E-08  9.54122075566689E+00
 cg2d: Sum(rhs),rhsMax =  -9.08426116552619E-08  9.54046266149910E+00
 cg2d: Sum(rhs),rhsMax =  -9.08497668206110E-08  9.53965734943055E+00
 cg2d: Sum(rhs),rhsMax =  -9.08576467395505E-08  9.53880424419014E+00
 cg2d: Sum(rhs),rhsMax =  -9.08659032461401E-08  9.53790282192021E+00
 cg2d: Sum(rhs),rhsMax =  -9.08746713434994E-08  9.53695268180845E+00
 cg2d: Sum(rhs),rhsMax =  -9.08840078750472E-08  9.53595362230667E+00
 cg2d: Sum(rhs),rhsMax =  -9.08936215182621E-08  9.53490571447803E+00
 cg2d: Sum(rhs),rhsMax =  -9.09042654484438E-08  9.53380930168364E+00
 cg2d: Sum(rhs),rhsMax =  -9.09145470018302E-08  9.53266493640869E+00
 cg2d: Sum(rhs),rhsMax =  -9.09259227910297E-08  9.53147332889492E+00
 cg2d: Sum(rhs),rhsMax =  -9.09384141323244E-08  9.53023537646442E+00
 cg2d: Sum(rhs),rhsMax =  -9.09505217805417E-08  9.52895220993865E+00
 cg2d: Sum(rhs),rhsMax =  -9.09629278567081E-08  9.52762520262973E+00
 cg2d: Sum(rhs),rhsMax =  -9.09757815747980E-08  9.52625594300855E+00
 cg2d: Sum(rhs),rhsMax =  -9.09892747813501E-08  9.52484621149773E+00
 cg2d: Sum(rhs),rhsMax =  -9.10029882561503E-08  9.52339794221070E+00
 EXTERNAL_FIELDS_LOAD, it=   3600270 : Reading new data, i0,i1=    5    6 (prev=    4    5 )
 DIC_FIELDS_LOAD, it=   3600270 : Reading new data, i0,i1=    5    6 (prev=    4    5 )
 cg2d: Sum(rhs),rhsMax =  -9.10169930534721E-08  9.52191318167782E+00
 cg2d: Sum(rhs),rhsMax =  -9.10311257484864E-08  9.52041761022813E+00
 cg2d: Sum(rhs),rhsMax =  -9.10455213443129E-08  9.51892843351038E+00
 cg2d: Sum(rhs),rhsMax =  -9.10593485059508E-08  9.51746258399289E+00
 cg2d: Sum(rhs),rhsMax =  -9.10729625047679E-08  9.51603636817957E+00
 cg2d: Sum(rhs),rhsMax =  -9.10860507019606E-08  9.51466517931999E+00
 cg2d: Sum(rhs),rhsMax =  -9.10986344138109E-08  9.51336322967766E+00
 cg2d: Sum(rhs),rhsMax =  -9.11102233658312E-08  9.51214329321166E+00
 cg2d: Sum(rhs),rhsMax =  -9.11212367782355E-08  9.51101645114812E+00
 cg2d: Sum(rhs),rhsMax =  -9.11308219997409E-08  9.50999185515969E+00
 cg2d: Sum(rhs),rhsMax =  -9.11397606273567E-08  9.50907652378690E+00
 cg2d: Sum(rhs),rhsMax =  -9.11473847509114E-08  9.50827517814543E+00
 cg2d: Sum(rhs),rhsMax =  -9.11540354309182E-08  9.50759014752173E+00
 cg2d: Sum(rhs),rhsMax =  -9.11595421371203E-08  9.50702134377118E+00
 cg2d: Sum(rhs),rhsMax =  -9.11640682943471E-08  9.50656629011210E+00
 cg2d: Sum(rhs),rhsMax =  -9.11673012637948E-08  9.50622019182364E+00
 cg2d: Sum(rhs),rhsMax =  -9.11696744765322E-08  9.50597606771963E+00
 cg2d: Sum(rhs),rhsMax =  -9.11708539774736E-08  9.50582494250500E+00
 cg2d: Sum(rhs),rhsMax =  -9.11716497853376E-08  9.50575608648473E+00
 cg2d: Sum(rhs),rhsMax =  -9.11714224116622E-08  9.50575729587021E+00
 cg2d: Sum(rhs),rhsMax =  -9.11708468720462E-08  9.50581523373235E+00
 cg2d: Sum(rhs),rhsMax =  -9.11699018502077E-08  9.50591575069248E+00
 cg2d: Sum(rhs),rhsMax =  -9.11685589244371E-08  9.50604420974297E+00
 cg2d: Sum(rhs),rhsMax =  -9.11669744141363E-08  9.50618583284504E+00
 cg2d: Sum(rhs),rhsMax =  -9.11656883317846E-08  9.50632606101357E+00
 cg2d: Sum(rhs),rhsMax =  -9.11643525114414E-08  9.50645090757042E+00
 cg2d: Sum(rhs),rhsMax =  -9.11635567035773E-08  9.50654729113363E+00
 cg2d: Sum(rhs),rhsMax =  -9.11632938027651E-08  9.50660334354173E+00
 cg2d: Sum(rhs),rhsMax =  -9.11633009081925E-08  9.50660868062301E+00
 cg2d: Sum(rhs),rhsMax =  -9.11639332912273E-08  9.50655462562515E+00
 cg2d: Sum(rhs),rhsMax =  -9.11649706836215E-08  9.50643436311089E+00
 cg2d: Sum(rhs),rhsMax =  -9.11672302095212E-08  9.50624304674150E+00
 cg2d: Sum(rhs),rhsMax =  -9.11696460548228E-08  9.50597781905916E+00
 cg2d: Sum(rhs),rhsMax =  -9.11727440211507E-08  9.50563777710892E+00
 cg2d: Sum(rhs),rhsMax =  -9.11770854372662E-08  9.50522393135291E+00
 cg2d: Sum(rhs),rhsMax =  -9.11816186999204E-08  9.50473911463816E+00
 cg2d: Sum(rhs),rhsMax =  -9.11870614572763E-08  9.50418773930678E+00
 cg2d: Sum(rhs),rhsMax =  -9.11928168534359E-08  9.50357558691374E+00
 cg2d: Sum(rhs),rhsMax =  -9.11992827923314E-08  9.50290964447458E+00
 cg2d: Sum(rhs),rhsMax =  -9.12065729608003E-08  9.50219791542795E+00
 cg2d: Sum(rhs),rhsMax =  -9.12139270781154E-08  9.50144918276843E+00
 cg2d: Sum(rhs),rhsMax =  -9.12212811954305E-08  9.50067274580360E+00
 cg2d: Sum(rhs),rhsMax =  -9.12293955934729E-08  9.49987815929010E+00
 cg2d: Sum(rhs),rhsMax =  -9.12369131356172E-08  9.49907498366882E+00
 cg2d: Sum(rhs),rhsMax =  -9.12447788437021E-08  9.49827255755378E+00
 cg2d: Sum(rhs),rhsMax =  -9.12528008711888E-08  9.49747978836020E+00
 cg2d: Sum(rhs),rhsMax =  -9.12602686753416E-08  9.49670496341604E+00
 cg2d: Sum(rhs),rhsMax =  -9.12679780640246E-08  9.49595558374171E+00
 cg2d: Sum(rhs),rhsMax =  -9.12747850634332E-08  9.49523821505845E+00
 cg2d: Sum(rhs),rhsMax =  -9.12811941589098E-08  9.49455836839740E+00
 cg2d: Sum(rhs),rhsMax =  -9.12878306280618E-08  9.49392042323925E+00
 cg2d: Sum(rhs),rhsMax =  -9.12937139219139E-08  9.49332754785973E+00
 cg2d: Sum(rhs),rhsMax =  -9.12992632606802E-08  9.49278165465699E+00
 cg2d: Sum(rhs),rhsMax =  -9.13035833605136E-08  9.49228339433203E+00
 cg2d: Sum(rhs),rhsMax =  -9.13086424247922E-08  9.49183218209292E+00
 cg2d: Sum(rhs),rhsMax =  -9.13127422563775E-08  9.49142625728328E+00
 cg2d: Sum(rhs),rhsMax =  -9.13163518134752E-08  9.49106276286301E+00
 cg2d: Sum(rhs),rhsMax =  -9.13194782015125E-08  9.49073783789306E+00
 cg2d: Sum(rhs),rhsMax =  -9.13225406407037E-08  9.49044672400271E+00
 cg2d: Sum(rhs),rhsMax =  -9.13253046519458E-08  9.49018390323782E+00
 EXTERNAL_FIELDS_LOAD, it=   3600330 : Reading new data, i0,i1=    6    7 (prev=    5    6 )
 DIC_FIELDS_LOAD, it=   3600330 : Reading new data, i0,i1=    6    7 (prev=    5    6 )
 cg2d: Sum(rhs),rhsMax =  -9.13276210212643E-08  9.48994325700856E+00
 cg2d: Sum(rhs),rhsMax =  -9.13303352945150E-08  9.48970801758053E+00
 cg2d: Sum(rhs),rhsMax =  -9.13328221940901E-08  9.48946471682098E+00
 cg2d: Sum(rhs),rhsMax =  -9.13353943587936E-08  9.48919980375378E+00
 cg2d: Sum(rhs),rhsMax =  -9.13383644274290E-08  9.48889996251626E+00
 cg2d: Sum(rhs),rhsMax =  -9.13418460868343E-08  9.48855235316500E+00
 cg2d: Sum(rhs),rhsMax =  -9.13461093432488E-08  9.48814487205053E+00
 cg2d: Sum(rhs),rhsMax =  -9.13508344524416E-08  9.48766639266868E+00
 cg2d: Sum(rhs),rhsMax =  -9.13563624749258E-08  9.48710698236420E+00
 cg2d: Sum(rhs),rhsMax =  -9.13624518261713E-08  9.48645808347463E+00
 cg2d: Sum(rhs),rhsMax =  -9.13698130489138E-08  9.48571268422533E+00
 cg2d: Sum(rhs),rhsMax =  -9.13783111400335E-08  9.48486545850383E+00
 cg2d: Sum(rhs),rhsMax =  -9.13876760932908E-08  9.48391285858374E+00
 cg2d: Sum(rhs),rhsMax =  -9.13977800109933E-08  9.48285315351105E+00
 cg2d: Sum(rhs),rhsMax =  -9.14093334358768E-08  9.48168641391458E+00
 cg2d: Sum(rhs),rhsMax =  -9.14215760872139E-08  9.48041445516485E+00
 cg2d: Sum(rhs),rhsMax =  -9.14348703418000E-08  9.47904073781749E+00
 cg2d: Sum(rhs),rhsMax =  -9.14490314585237E-08  9.47757022510765E+00
 cg2d: Sum(rhs),rhsMax =  -9.14641802296501E-08  9.47600920384239E+00
 cg2d: Sum(rhs),rhsMax =  -9.14802384954783E-08  9.47436507523804E+00
 cg2d: Sum(rhs),rhsMax =  -9.14970428311790E-08  9.47264612546539E+00
 cg2d: Sum(rhs),rhsMax =  -9.15143658630768E-08  9.47086128598380E+00
 cg2d: Sum(rhs),rhsMax =  -9.15317244221114E-08  9.46901988541289E+00
 cg2d: Sum(rhs),rhsMax =  -9.15503548526431E-08  9.46713139755286E+00
 cg2d: Sum(rhs),rhsMax =  -9.15688005420634E-08  9.46520519129246E+00
 cg2d: Sum(rhs),rhsMax =  -9.15879354579374E-08  9.46325027783096E+00
 cg2d: Sum(rhs),rhsMax =  -9.16070561629567E-08  9.46127510172983E+00
 cg2d: Sum(rhs),rhsMax =  -9.16269016215665E-08  9.45928736176468E+00
 cg2d: Sum(rhs),rhsMax =  -9.16458375854745E-08  9.45729384446051E+00
 cg2d: Sum(rhs),rhsMax =  -9.16652354021608E-08  9.45530032221759E+00
 cg2d: Sum(rhs),rhsMax =  -9.16847469056847E-08  9.45331147339530E+00
 cg2d: Sum(rhs),rhsMax =  -9.17041660386531E-08  9.45133082537812E+00
 cg2d: Sum(rhs),rhsMax =  -9.17234714847837E-08  9.44936073119909E+00
 cg2d: Sum(rhs),rhsMax =  -9.17423008672813E-08  9.44740238220463E+00
 cg2d: Sum(rhs),rhsMax =  -9.17614002560185E-08  9.44545585645758E+00
 cg2d: Sum(rhs),rhsMax =  -9.17801870059520E-08  9.44352020252140E+00
 cg2d: Sum(rhs),rhsMax =  -9.17989737558855E-08  9.44159355733174E+00
 cg2d: Sum(rhs),rhsMax =  -9.18179097197935E-08  9.43967327626014E+00
 cg2d: Sum(rhs),rhsMax =  -9.18367177860091E-08  9.43775607395104E+00
 cg2d: Sum(rhs),rhsMax =  -9.18552629514124E-08  9.43583817490269E+00
 cg2d: Sum(rhs),rhsMax =  -9.18742912858761E-08  9.43391546318717E+00
 cg2d: Sum(rhs),rhsMax =  -9.18933977800407E-08  9.43198362529795E+00
 cg2d: Sum(rhs),rhsMax =  -9.19123053222393E-08  9.43003828806143E+00
 cg2d: Sum(rhs),rhsMax =  -9.19319091963189E-08  9.42807514245689E+00
 cg2d: Sum(rhs),rhsMax =  -9.19516196518089E-08  9.42609005034801E+00
 cg2d: Sum(rhs),rhsMax =  -9.19711453661876E-08  9.42407914155286E+00
 cg2d: Sum(rhs),rhsMax =  -9.19916374186869E-08  9.42203890101561E+00
 cg2d: Sum(rhs),rhsMax =  -9.20122005254598E-08  9.41996625280574E+00
 cg2d: Sum(rhs),rhsMax =  -9.20328773190704E-08  9.41785862954787E+00
 cg2d: Sum(rhs),rhsMax =  -9.20541722848611E-08  9.41571402403211E+00
 cg2d: Sum(rhs),rhsMax =  -9.20761920042423E-08  9.41353104362712E+00
 cg2d: Sum(rhs),rhsMax =  -9.20975224971698E-08  9.41130897700722E+00
 cg2d: Sum(rhs),rhsMax =  -9.21202243375774E-08  9.40904782014454E+00
 cg2d: Sum(rhs),rhsMax =  -9.21427556477283E-08  9.40674826682519E+00
 cg2d: Sum(rhs),rhsMax =  -9.21658624974953E-08  9.40441167656376E+00
 cg2d: Sum(rhs),rhsMax =  -9.21897651551262E-08  9.40204003109270E+00
 cg2d: Sum(rhs),rhsMax =  -9.22136393910478E-08  9.39963588692061E+00
 cg2d: Sum(rhs),rhsMax =  -9.22377765277815E-08  9.39720232327049E+00
 cg2d: Sum(rhs),rhsMax =  -9.22617147125493E-08  9.39474287623570E+00
 cg2d: Sum(rhs),rhsMax =  -9.22866476571471E-08  9.39226147078604E+00
 EXTERNAL_FIELDS_LOAD, it=   3600390 : Reading new data, i0,i1=    7    8 (prev=    6    7 )
 DIC_FIELDS_LOAD, it=   3600390 : Reading new data, i0,i1=    7    8 (prev=    6    7 )
 cg2d: Sum(rhs),rhsMax =  -9.23120353490958E-08  9.38976233427929E+00
 cg2d: Sum(rhs),rhsMax =  -9.23369185557021E-08  9.38724381347799E+00
 cg2d: Sum(rhs),rhsMax =  -9.23620930848301E-08  9.38470550458213E+00
 cg2d: Sum(rhs),rhsMax =  -9.23878431535741E-08  9.38214640732935E+00
 cg2d: Sum(rhs),rhsMax =  -9.24133303215058E-08  9.37956498127073E+00
 cg2d: Sum(rhs),rhsMax =  -9.24395564538827E-08  9.37695924403383E+00
 cg2d: Sum(rhs),rhsMax =  -9.24659673273709E-08  9.37432689628576E+00
 cg2d: Sum(rhs),rhsMax =  -9.24926268908166E-08  9.37166545130188E+00
 cg2d: Sum(rhs),rhsMax =  -9.25199330481519E-08  9.36897236493602E+00
 cg2d: Sum(rhs),rhsMax =  -9.25472107837777E-08  9.36624514198210E+00
 cg2d: Sum(rhs),rhsMax =  -9.25749148450450E-08  9.36348144222541E+00
 cg2d: Sum(rhs),rhsMax =  -9.26027894365689E-08  9.36067916467522E+00
 cg2d: Sum(rhs),rhsMax =  -9.26316801042049E-08  9.35783651518778E+00
 cg2d: Sum(rhs),rhsMax =  -9.26604357687211E-08  9.35495205473915E+00
 cg2d: Sum(rhs),rhsMax =  -9.26899872411013E-08  9.35202472862356E+00
 cg2d: Sum(rhs),rhsMax =  -9.27198087197212E-08  9.34905386050751E+00
 cg2d: Sum(rhs),rhsMax =  -9.27502270542391E-08  9.34603912446753E+00
 cg2d: Sum(rhs),rhsMax =  -9.27809580275607E-08  9.34298052032945E+00
 cg2d: Sum(rhs),rhsMax =  -9.28122148025068E-08  9.33987837125357E+00
 cg2d: Sum(rhs),rhsMax =  -9.28438836922396E-08  9.33673332003228E+00
 cg2d: Sum(rhs),rhsMax =  -9.28756591633828E-08  9.33354631509102E+00
 cg2d: Sum(rhs),rhsMax =  -9.29085999246126E-08  9.33031856217985E+00
 cg2d: Sum(rhs),rhsMax =  -9.29414056827227E-08  9.32705144157814E+00
 cg2d: Sum(rhs),rhsMax =  -9.29742824951063E-08  9.32374640924821E+00
 cg2d: Sum(rhs),rhsMax =  -9.30079835370634E-08  9.32040491207867E+00
 cg2d: Sum(rhs),rhsMax =  -9.30417982658582E-08  9.31702830536998E+00
 cg2d: Sum(rhs),rhsMax =  -9.30764798567907E-08  9.31361778906816E+00
 cg2d: Sum(rhs),rhsMax =  -9.31104011669959E-08  9.31017435680010E+00
 cg2d: Sum(rhs),rhsMax =  -9.31454593455783E-08  9.30669874783390E+00
 cg2d: Sum(rhs),rhsMax =  -9.31809367443748E-08  9.30319140183628E+00
 cg2d: Sum(rhs),rhsMax =  -9.32159238686836E-08  9.29965242032067E+00
 cg2d: Sum(rhs),rhsMax =  -9.32518702256857E-08  9.29608155387300E+00
 cg2d: Sum(rhs),rhsMax =  -9.32883352788849E-08  9.29247816276956E+00
 cg2d: Sum(rhs),rhsMax =  -9.33245232204172E-08  9.28884120452690E+00
 cg2d: Sum(rhs),rhsMax =  -9.33613577558390E-08  9.28516924951164E+00
 cg2d: Sum(rhs),rhsMax =  -9.33982562401070E-08  9.28146051649491E+00
 cg2d: Sum(rhs),rhsMax =  -9.34364479121541E-08  9.27771291851975E+00
 cg2d: Sum(rhs),rhsMax =  -9.34740143065937E-08  9.27392411497484E+00
 cg2d: Sum(rhs),rhsMax =  -9.35126251988549E-08  9.27009157616147E+00
 cg2d: Sum(rhs),rhsMax =  -9.35518329470142E-08  9.26621266064052E+00
 cg2d: Sum(rhs),rhsMax =  -9.35912964905583E-08  9.26228469753356E+00
 cg2d: Sum(rhs),rhsMax =  -9.36311082000429E-08  9.25830502540661E+00
 cg2d: Sum(rhs),rhsMax =  -9.36718080879473E-08  9.25427104022615E+00
 cg2d: Sum(rhs),rhsMax =  -9.37130835154676E-08  9.25018025806528E+00
 cg2d: Sum(rhs),rhsMax =  -9.37547639523473E-08  9.24603037476154E+00
 cg2d: Sum(rhs),rhsMax =  -9.37974888870485E-08  9.24181932462259E+00
 cg2d: Sum(rhs),rhsMax =  -9.38402919814507E-08  9.23754533703139E+00
 cg2d: Sum(rhs),rhsMax =  -9.38843172093584E-08  9.23320698439808E+00
 cg2d: Sum(rhs),rhsMax =  -9.39290814017113E-08  9.22880321317793E+00
 cg2d: Sum(rhs),rhsMax =  -9.39739734917566E-08  9.22433335164241E+00
 cg2d: Sum(rhs),rhsMax =  -9.40200521881707E-08  9.21979710173837E+00
 cg2d: Sum(rhs),rhsMax =  -9.40667135296280E-08  9.21519452384442E+00
 cg2d: Sum(rhs),rhsMax =  -9.41140712029664E-08  9.21052602027441E+00
 cg2d: Sum(rhs),rhsMax =  -9.41621181027585E-08  9.20579231856880E+00
 cg2d: Sum(rhs),rhsMax =  -9.42108115964402E-08  9.20099445172383E+00
 cg2d: Sum(rhs),rhsMax =  -9.42603506359774E-08  9.19613373409314E+00
 cg2d: Sum(rhs),rhsMax =  -9.43106570616692E-08  9.19121172891709E+00
 cg2d: Sum(rhs),rhsMax =  -9.43619582471911E-08  9.18623021276131E+00
 cg2d: Sum(rhs),rhsMax =  -9.44129254776271E-08  9.18119115032627E+00
 cg2d: Sum(rhs),rhsMax =  -9.44648874678933E-08  9.17609666859133E+00
 EXTERNAL_FIELDS_LOAD, it=   3600450 : Reading new data, i0,i1=    8    9 (prev=    7    8 )
 DIC_FIELDS_LOAD, it=   3600450 : Reading new data, i0,i1=    8    9 (prev=    7    8 )
 cg2d: Sum(rhs),rhsMax =  -9.45180929079470E-08  9.17094900539886E+00
 cg2d: Sum(rhs),rhsMax =  -9.45713196642828E-08  9.16576037761048E+00
 cg2d: Sum(rhs),rhsMax =  -9.46249869571147E-08  9.16053907873528E+00
 cg2d: Sum(rhs),rhsMax =  -9.46787679367844E-08  9.15529303788953E+00
 cg2d: Sum(rhs),rhsMax =  -9.47327123412833E-08  9.15002961005962E+00
 cg2d: Sum(rhs),rhsMax =  -9.47873814993727E-08  9.14475542293395E+00
 cg2d: Sum(rhs),rhsMax =  -9.48415888046839E-08  9.13947626776025E+00
 cg2d: Sum(rhs),rhsMax =  -9.48963148061921E-08  9.13419703804716E+00
 cg2d: Sum(rhs),rhsMax =  -9.49505718494947E-08  9.12892171232682E+00
 cg2d: Sum(rhs),rhsMax =  -9.50055820680973E-08  9.12365335338700E+00
 cg2d: Sum(rhs),rhsMax =  -9.50602441207593E-08  9.11839411243203E+00
 cg2d: Sum(rhs),rhsMax =  -9.51149274897034E-08  9.11314523538299E+00
 cg2d: Sum(rhs),rhsMax =  -9.51689713701853E-08  9.10790707134369E+00
 cg2d: Sum(rhs),rhsMax =  -9.52241663298992E-08  9.10267908920085E+00
 cg2d: Sum(rhs),rhsMax =  -9.52785583763216E-08  9.09745990818067E+00
 cg2d: Sum(rhs),rhsMax =  -9.53332346398383E-08  9.09224734512777E+00
 cg2d: Sum(rhs),rhsMax =  -9.53879322196372E-08  9.08703847736888E+00
 cg2d: Sum(rhs),rhsMax =  -9.54423811094784E-08  9.08182972075513E+00
 cg2d: Sum(rhs),rhsMax =  -9.54974623823546E-08  9.07661692347198E+00
 cg2d: Sum(rhs),rhsMax =  -9.55527141854873E-08  9.07139547821490E+00
 cg2d: Sum(rhs),rhsMax =  -9.56078878289190E-08  9.06616045270155E+00
 cg2d: Sum(rhs),rhsMax =  -9.56632462134621E-08  9.06090673305150E+00
 cg2d: Sum(rhs),rhsMax =  -9.57190593453561E-08  9.05562917574046E+00
 cg2d: Sum(rhs),rhsMax =  -9.57753982788745E-08  9.05032276301453E+00
 cg2d: Sum(rhs),rhsMax =  -9.58323127520089E-08  9.04498274779792E+00
 cg2d: Sum(rhs),rhsMax =  -9.58890566948867E-08  9.03960479010611E+00
 cg2d: Sum(rhs),rhsMax =  -9.59469090844323E-08  9.03418508103277E+00
 cg2d: Sum(rhs),rhsMax =  -9.60046975251316E-08  9.02872044807494E+00
 cg2d: Sum(rhs),rhsMax =  -9.60634949365158E-08  9.02320843719522E+00
 cg2d: Sum(rhs),rhsMax =  -9.61234505325592E-08  9.01764736350553E+00
 cg2d: Sum(rhs),rhsMax =  -9.61829158541150E-08  9.01203632711249E+00
 cg2d: Sum(rhs),rhsMax =  -9.62436175200310E-08  9.00637519234014E+00
 cg2d: Sum(rhs),rhsMax =  -9.63047241953063E-08  9.00066454100738E+00
 cg2d: Sum(rhs),rhsMax =  -9.63663566722062E-08  8.99490560644289E+00
 cg2d: Sum(rhs),rhsMax =  -9.64286215321408E-08  8.98910019830229E+00
 cg2d: Sum(rhs),rhsMax =  -9.64914832479735E-08  8.98325060608421E+00
 cg2d: Sum(rhs),rhsMax =  -9.65549631359863E-08  8.97735949860674E+00
 cg2d: Sum(rhs),rhsMax =  -9.66191180395981E-08  8.97142982445055E+00
 cg2d: Sum(rhs),rhsMax =  -9.66832942594920E-08  8.96546471599943E+00
 cg2d: Sum(rhs),rhsMax =  -9.67482520763951E-08  8.95946740124540E+00
 cg2d: Sum(rhs),rhsMax =  -9.68132098932983E-08  8.95344112713886E+00
 cg2d: Sum(rhs),rhsMax =  -9.68790274669118E-08  8.94738909112794E+00
 cg2d: Sum(rhs),rhsMax =  -9.69447810916790E-08  8.94131438207753E+00
 cg2d: Sum(rhs),rhsMax =  -9.70111884157632E-08  8.93521991327319E+00
 cg2d: Sum(rhs),rhsMax =  -9.70773115227530E-08  8.92910833888471E+00
 cg2d: Sum(rhs),rhsMax =  -9.71445075492738E-08  8.92298199747039E+00
 cg2d: Sum(rhs),rhsMax =  -9.72113554098541E-08  8.91684290726808E+00
 cg2d: Sum(rhs),rhsMax =  -9.72787574937684E-08  8.91069264633776E+00
 cg2d: Sum(rhs),rhsMax =  -9.73459535202892E-08  8.90453228797114E+00
 cg2d: Sum(rhs),rhsMax =  -9.74135971887335E-08  8.89836249714105E+00
 cg2d: Sum(rhs),rhsMax =  -9.74817027099562E-08  8.89218368115518E+00
 cg2d: Sum(rhs),rhsMax =  -9.75496519117769E-08  8.88599608996445E+00
 cg2d: Sum(rhs),rhsMax =  -9.76179350686834E-08  8.87979980032782E+00
 cg2d: Sum(rhs),rhsMax =  -9.76860476953334E-08  8.87359466021019E+00
 cg2d: Sum(rhs),rhsMax =  -9.77549490244201E-08  8.86737992136571E+00
 cg2d: Sum(rhs),rhsMax =  -9.78237792992331E-08  8.86115449881272E+00
 cg2d: Sum(rhs),rhsMax =  -9.78925882577641E-08  8.85491714939279E+00
 cg2d: Sum(rhs),rhsMax =  -9.79620651264668E-08  8.84866650814923E+00
 cg2d: Sum(rhs),rhsMax =  -9.80318830556826E-08  8.84239908862083E+00
 cg2d: Sum(rhs),rhsMax =  -9.81016583523342E-08  8.83611205511795E+00
 EXTERNAL_FIELDS_LOAD, it=   3600510 : Reading new data, i0,i1=    9   10 (prev=    8    9 )
 DIC_FIELDS_LOAD, it=   3600510 : Reading new data, i0,i1=    9   10 (prev=    8    9 )
 cg2d: Sum(rhs),rhsMax =  -9.81721868242857E-08  8.82980306034887E+00
 cg2d: Sum(rhs),rhsMax =  -9.82427721396562E-08  8.82347164349139E+00
 cg2d: Sum(rhs),rhsMax =  -9.83135990395567E-08  8.81711735596894E+00
 cg2d: Sum(rhs),rhsMax =  -9.83851720093298E-08  8.81074020360017E+00
 cg2d: Sum(rhs),rhsMax =  -9.84564962891454E-08  8.80434063629974E+00
 cg2d: Sum(rhs),rhsMax =  -9.85286376931072E-08  8.79791959804717E+00
 cg2d: Sum(rhs),rhsMax =  -9.86011414738641E-08  8.79147850051498E+00
 cg2d: Sum(rhs),rhsMax =  -9.86734960406466E-08  8.78501923806664E+00
 cg2d: Sum(rhs),rhsMax =  -9.87464900958912E-08  8.77854412431977E+00
 cg2d: Sum(rhs),rhsMax =  -9.88197470519481E-08  8.77205585109022E+00
 cg2d: Sum(rhs),rhsMax =  -9.88934729662105E-08  8.76555740298602E+00
 cg2d: Sum(rhs),rhsMax =  -9.89669146633787E-08  8.75905198910442E+00
 cg2d: Sum(rhs),rhsMax =  -9.90407258427695E-08  8.75254295465281E+00
 cg2d: Sum(rhs),rhsMax =  -9.91145014950234E-08  8.74603368964057E+00
 cg2d: Sum(rhs),rhsMax =  -9.91886466295000E-08  8.73952755244439E+00
 cg2d: Sum(rhs),rhsMax =  -9.92623157003436E-08  8.73302782624689E+00
 cg2d: Sum(rhs),rhsMax =  -9.93363400425551E-08  8.72653766294564E+00
 cg2d: Sum(rhs),rhsMax =  -9.94104141227581E-08  8.72006002219781E+00
 cg2d: Sum(rhs),rhsMax =  -9.94844668866790E-08  8.71359759621992E+00
 cg2d: Sum(rhs),rhsMax =  -9.95583775420528E-08  8.70715278372291E+00
 cg2d: Sum(rhs),rhsMax =  -9.96322597757171E-08  8.70072771032166E+00
 cg2d: Sum(rhs),rhsMax =  -9.97059714791249E-08  8.69432422374462E+00
 cg2d: Sum(rhs),rhsMax =  -9.97792923840279E-08  8.68794392220557E+00
 cg2d: Sum(rhs),rhsMax =  -9.98527127649140E-08  8.68159287495532E+00
 cg2d: Sum(rhs),rhsMax =  -9.99256144496030E-08  8.67527594836007E+00
 cg2d: Sum(rhs),rhsMax =  -9.99983740257449E-08  8.66899648662334E+00
 cg2d: Sum(rhs),rhsMax =  -1.00070764119664E-07  8.66275674813775E+00
 cg2d: Sum(rhs),rhsMax =  -1.00142791836788E-07  8.65655808426570E+00
 cg2d: Sum(rhs),rhsMax =  -1.00214123222031E-07  8.65040095427649E+00
 cg2d: Sum(rhs),rhsMax =  -1.00285419080137E-07  8.64428511771589E+00
 cg2d: Sum(rhs),rhsMax =  -1.00356203347474E-07  8.63820779072895E+00
 cg2d: Sum(rhs),rhsMax =  -1.00426881033400E-07  8.63216610266613E+00
 cg2d: Sum(rhs),rhsMax =  -1.00497182131676E-07  8.62615664857018E+00
 cg2d: Sum(rhs),rhsMax =  -1.00566929006618E-07  8.62017549344574E+00
 cg2d: Sum(rhs),rhsMax =  -1.00636839306389E-07  8.61421824973427E+00
 cg2d: Sum(rhs),rhsMax =  -1.00706515127058E-07  8.60828014305759E+00
 cg2d: Sum(rhs),rhsMax =  -1.00776318845419E-07  8.60235619466164E+00
 cg2d: Sum(rhs),rhsMax =  -1.00845916506387E-07  8.59644141396147E+00
 cg2d: Sum(rhs),rhsMax =  -1.00915485745645E-07  8.59053104903554E+00
 cg2d: Sum(rhs),rhsMax =  -1.00985261042297E-07  8.58462072248315E+00
 cg2d: Sum(rhs),rhsMax =  -1.01055491086299E-07  8.57870663714626E+00
 cg2d: Sum(rhs),rhsMax =  -1.01125422702353E-07  8.57278566865890E+00
 cg2d: Sum(rhs),rhsMax =  -1.01195716695202E-07  8.56685532083521E+00
 cg2d: Sum(rhs),rhsMax =  -1.01266216745444E-07  8.56091374139585E+00
 cg2d: Sum(rhs),rhsMax =  -1.01337192859319E-07  8.55495975914983E+00
 cg2d: Sum(rhs),rhsMax =  -1.01408346608878E-07  8.54899275863313E+00
 cg2d: Sum(rhs),rhsMax =  -1.01479535885574E-07  8.54301265247851E+00
 cg2d: Sum(rhs),rhsMax =  -1.01551435705005E-07  8.53701978569626E+00
 cg2d: Sum(rhs),rhsMax =  -1.01622724457684E-07  8.53101490472480E+00
 cg2d: Sum(rhs),rhsMax =  -1.01695292187287E-07  8.52499919193590E+00
 cg2d: Sum(rhs),rhsMax =  -1.01767554383514E-07  8.51897431341724E+00
 cg2d: Sum(rhs),rhsMax =  -1.01840242905382E-07  8.51294235247767E+00
 cg2d: Sum(rhs),rhsMax =  -1.01912846162122E-07  8.50690569200869E+00
 cg2d: Sum(rhs),rhsMax =  -1.01985413891725E-07  8.50087005576702E+00
 cg2d: Sum(rhs),rhsMax =  -1.02058450579534E-07  8.49484015017416E+00
 cg2d: Sum(rhs),rhsMax =  -1.02131188839394E-07  8.48882063673028E+00
 cg2d: Sum(rhs),rhsMax =  -1.02203856044980E-07  8.48281607441673E+00
 cg2d: Sum(rhs),rhsMax =  -1.02276672464541E-07  8.47683086082370E+00
 cg2d: Sum(rhs),rhsMax =  -1.02349595465512E-07  8.47086915096995E+00
 cg2d: Sum(rhs),rhsMax =  -1.02421360281824E-07  8.46493476809303E+00
 EXTERNAL_FIELDS_LOAD, it=   3600570 : Reading new data, i0,i1=   10   11 (prev=    9   10 )
 DIC_FIELDS_LOAD, it=   3600570 : Reading new data, i0,i1=   10   11 (prev=    9   10 )
 cg2d: Sum(rhs),rhsMax =  -1.02493515896640E-07  8.45903109783263E+00
 cg2d: Sum(rhs),rhsMax =  -1.02564975179575E-07  8.45319648993583E+00
 cg2d: Sum(rhs),rhsMax =  -1.02634501786270E-07  8.44745634270964E+00
 cg2d: Sum(rhs),rhsMax =  -1.02703893389844E-07  8.44183524325516E+00
 cg2d: Sum(rhs),rhsMax =  -1.02770819410125E-07  8.43635626330932E+00
 cg2d: Sum(rhs),rhsMax =  -1.02836231974379E-07  8.43104036727980E+00
 cg2d: Sum(rhs),rhsMax =  -1.02899214482477E-07  8.42590597581903E+00
 cg2d: Sum(rhs),rhsMax =  -1.02960150627496E-07  8.42096861540595E+00
 cg2d: Sum(rhs),rhsMax =  -1.03018727770632E-07  8.41624063283881E+00
 cg2d: Sum(rhs),rhsMax =  -1.03074462742825E-07  8.41173099284368E+00
 cg2d: Sum(rhs),rhsMax =  -1.03127582917750E-07  8.40744522364360E+00
 cg2d: Sum(rhs),rhsMax =  -1.03177704602331E-07  8.40338548638234E+00
 cg2d: Sum(rhs),rhsMax =  -1.03225289649345E-07  8.39955071057647E+00
 cg2d: Sum(rhs),rhsMax =  -1.03270444640202E-07  8.39593686353065E+00
 cg2d: Sum(rhs),rhsMax =  -1.03312800092681E-07  8.39253726007720E+00
 cg2d: Sum(rhs),rhsMax =  -1.03352554958747E-07  8.38934286490718E+00
 cg2d: Sum(rhs),rhsMax =  -1.03389886874083E-07  8.38634267692018E+00
 cg2d: Sum(rhs),rhsMax =  -1.03425186637196E-07  8.38352418466840E+00
 cg2d: Sum(rhs),rhsMax =  -1.03458575040349E-07  8.38087384792736E+00
 cg2d: Sum(rhs),rhsMax =  -1.03489654179612E-07  8.37837764295235E+00
 cg2d: Sum(rhs),rhsMax =  -1.03519347760539E-07  8.37602165023152E+00
 cg2d: Sum(rhs),rhsMax =  -1.03547364460610E-07  8.37379265495454E+00
 cg2d: Sum(rhs),rhsMax =  -1.03573896126363E-07  8.37167859305842E+00
 cg2d: Sum(rhs),rhsMax =  -1.03599155920620E-07  8.36966841617237E+00
 cg2d: Sum(rhs),rhsMax =  -1.03623357006200E-07  8.36775262363169E+00
 cg2d: Sum(rhs),rhsMax =  -1.03646584648232E-07  8.36592322530019E+00
 cg2d: Sum(rhs),rhsMax =  -1.03668426731929E-07  8.36417370361670E+00
 cg2d: Sum(rhs),rhsMax =  -1.03689806962848E-07  8.36249893566327E+00
 cg2d: Sum(rhs),rhsMax =  -1.03710164012227E-07  8.36089512198643E+00
 cg2d: Sum(rhs),rhsMax =  -1.03729064448999E-07  8.35935972193128E+00
 cg2d: Sum(rhs),rhsMax =  -1.03747986202052E-07  8.35789132052859E+00
 cg2d: Sum(rhs),rhsMax =  -1.03765373182796E-07  8.35648953984663E+00
 cg2d: Sum(rhs),rhsMax =  -1.03782369365035E-07  8.35515503666620E+00
 cg2d: Sum(rhs),rhsMax =  -1.03798733164240E-07  8.35388959337713E+00
 cg2d: Sum(rhs),rhsMax =  -1.03813491136862E-07  8.35269612989214E+00
 cg2d: Sum(rhs),rhsMax =  -1.03827638042731E-07  8.35157865319166E+00
 cg2d: Sum(rhs),rhsMax =  -1.03841280463257E-07  8.35054220321588E+00
 cg2d: Sum(rhs),rhsMax =  -1.03853331268056E-07  8.34959282244478E+00
 cg2d: Sum(rhs),rhsMax =  -1.03864024936229E-07  8.34873757212784E+00
 cg2d: Sum(rhs),rhsMax =  -1.03873794898846E-07  8.34798443944571E+00
 cg2d: Sum(rhs),rhsMax =  -1.03881951929452E-07  8.34734205444848E+00
 cg2d: Sum(rhs),rhsMax =  -1.03888730507151E-07  8.34681927427749E+00
 cg2d: Sum(rhs),rhsMax =  -1.03893782466002E-07  8.34642479662444E+00
 cg2d: Sum(rhs),rhsMax =  -1.03896695691219E-07  8.34616690162161E+00
 cg2d: Sum(rhs),rhsMax =  -1.03898251779810E-07  8.34605328416144E+00
 cg2d: Sum(rhs),rhsMax =  -1.03897747294468E-07  8.34609086201575E+00
 cg2d: Sum(rhs),rhsMax =  -1.03895416714295E-07  8.34628560159372E+00
 cg2d: Sum(rhs),rhsMax =  -1.03891132141598E-07  8.34664238294981E+00
 cg2d: Sum(rhs),rhsMax =  -1.03884730151549E-07  8.34716488141953E+00
 cg2d: Sum(rhs),rhsMax =  -1.03876232060429E-07  8.34785544920597E+00
 cg2d: Sum(rhs),rhsMax =  -1.03865339440290E-07  8.34871504733891E+00
 cg2d: Sum(rhs),rhsMax =  -1.03852393351644E-07  8.34974320296400E+00
 cg2d: Sum(rhs),rhsMax =  -1.03837578535604E-07  8.35093803633076E+00
 cg2d: Sum(rhs),rhsMax =  -1.03820866570459E-07  8.35229628921908E+00
 cg2d: Sum(rhs),rhsMax =  -1.03801575335183E-07  8.35381348895399E+00
 cg2d: Sum(rhs),rhsMax =  -1.03780770643880E-07  8.35548405560547E+00
 cg2d: Sum(rhs),rhsMax =  -1.03758168279455E-07  8.35730145035772E+00
 cg2d: Sum(rhs),rhsMax =  -1.03734052459004E-07  8.35925834161856E+00
 cg2d: Sum(rhs),rhsMax =  -1.03707641585515E-07  8.36134677020027E+00
 cg2d: Sum(rhs),rhsMax =  -1.03680264373907E-07  8.36355833544679E+00
 EXTERNAL_FIELDS_LOAD, it=   3600630 : Reading new data, i0,i1=   11   12 (prev=   10   11 )
 DIC_FIELDS_LOAD, it=   3600630 : Reading new data, i0,i1=   11   12 (prev=   10   11 )
 cg2d: Sum(rhs),rhsMax =  -1.03651167648877E-07  8.36588437297216E+00
 cg2d: Sum(rhs),rhsMax =  -1.03620983793462E-07  8.36829873825493E+00
 cg2d: Sum(rhs),rhsMax =  -1.03590167555012E-07  8.37078098256463E+00
 cg2d: Sum(rhs),rhsMax =  -1.03558832620365E-07  8.37331076990736E+00
 cg2d: Sum(rhs),rhsMax =  -1.03526986094948E-07  8.37586828475342E+00
 cg2d: Sum(rhs),rhsMax =  -1.03494969039275E-07  8.37843651347270E+00
 cg2d: Sum(rhs),rhsMax =  -1.03462959089029E-07  8.38100058596186E+00
 cg2d: Sum(rhs),rhsMax =  -1.03431759157502E-07  8.38354800119352E+00
 cg2d: Sum(rhs),rhsMax =  -1.03400431328282E-07  8.38606907281455E+00
 cg2d: Sum(rhs),rhsMax =  -1.03369536930131E-07  8.38855705740912E+00
 cg2d: Sum(rhs),rhsMax =  -1.03339182544460E-07  8.39100818777902E+00
 cg2d: Sum(rhs),rhsMax =  -1.03309091059600E-07  8.39342162927294E+00
 cg2d: Sum(rhs),rhsMax =  -1.03279326424399E-07  8.39579937673915E+00
 cg2d: Sum(rhs),rhsMax =  -1.03250158645096E-07  8.39814606298476E+00
 cg2d: Sum(rhs),rhsMax =  -1.03221587721691E-07  8.40046867037939E+00
 cg2d: Sum(rhs),rhsMax =  -1.03192640210636E-07  8.40277617859981E+00
 cg2d: Sum(rhs),rhsMax =  -1.03164317977189E-07  8.40507915533000E+00
 cg2d: Sum(rhs),rhsMax =  -1.03135583628955E-07  8.40738929078001E+00
 cg2d: Sum(rhs),rhsMax =  -1.03106465587643E-07  8.40971893982490E+00
 cg2d: Sum(rhs),rhsMax =  -1.03077603341717E-07  8.41208069021930E+00
 cg2d: Sum(rhs),rhsMax =  -1.03047760546815E-07  8.41448664736628E+00
 cg2d: Sum(rhs),rhsMax =  -1.03017328001442E-07  8.41694808963461E+00
 cg2d: Sum(rhs),rhsMax =  -1.02985850958248E-07  8.41947641344255E+00
 cg2d: Sum(rhs),rhsMax =  -1.02953762848301E-07  8.42209465677943E+00
 cg2d: Sum(rhs),rhsMax =  -1.02920779454507E-07  8.42481840011152E+00
 cg2d: Sum(rhs),rhsMax =  -1.02885756803062E-07  8.42766143831664E+00
 cg2d: Sum(rhs),rhsMax =  -1.02849760708068E-07  8.43063562227923E+00
 cg2d: Sum(rhs),rhsMax =  -1.02811505087175E-07  8.43375048923612E+00
 cg2d: Sum(rhs),rhsMax =  -1.02771743115682E-07  8.43701312183894E+00
 cg2d: Sum(rhs),rhsMax =  -1.02730268736195E-07  8.44042805498092E+00
 cg2d: Sum(rhs),rhsMax =  -1.02686364300553E-07  8.44399728026233E+00
 cg2d: Sum(rhs),rhsMax =  -1.02641237731405E-07  8.44772028674299E+00
 cg2d: Sum(rhs),rhsMax =  -1.02594057693750E-07  8.45159419183708E+00
 cg2d: Sum(rhs),rhsMax =  -1.02545079982974E-07  8.45561389463918E+00
 cg2d: Sum(rhs),rhsMax =  -1.02494418285914E-07  8.45977229544668E+00
 cg2d: Sum(rhs),rhsMax =  -1.02442626825905E-07  8.46406043486096E+00
 cg2d: Sum(rhs),rhsMax =  -1.02389186906748E-07  8.46846786249842E+00
 cg2d: Sum(rhs),rhsMax =  -1.02334411167249E-07  8.47298294092153E+00
 cg2d: Sum(rhs),rhsMax =  -1.02278569613645E-07  8.47759310010859E+00
 cg2d: Sum(rhs),rhsMax =  -1.02221783038203E-07  8.48228511495217E+00
 cg2d: Sum(rhs),rhsMax =  -1.02164435134000E-07  8.48704540520819E+00
 cg2d: Sum(rhs),rhsMax =  -1.02106639587873E-07  8.49186038102640E+00
 cg2d: Sum(rhs),rhsMax =  -1.02048161920720E-07  8.49671683330553E+00
 cg2d: Sum(rhs),rhsMax =  -1.01989222400789E-07  8.50160229731839E+00
 cg2d: Sum(rhs),rhsMax =  -1.01930119456028E-07  8.50650541756349E+00
 cg2d: Sum(rhs),rhsMax =  -1.01871734159431E-07  8.51141606286167E+00
 cg2d: Sum(rhs),rhsMax =  -1.01813114383731E-07  8.51632550458549E+00
 cg2d: Sum(rhs),rhsMax =  -1.01754352499484E-07  8.52122658728227E+00
 cg2d: Sum(rhs),rhsMax =  -1.01695938781177E-07  8.52611387363114E+00
 cg2d: Sum(rhs),rhsMax =  -1.01637908755947E-07  8.53098375482528E+00
 cg2d: Sum(rhs),rhsMax =  -1.01580091893538E-07  8.53583450654913E+00
 cg2d: Sum(rhs),rhsMax =  -1.01522516615660E-07  8.54066629803099E+00
 cg2d: Sum(rhs),rhsMax =  -1.01465325030858E-07  8.54548114840508E+00
 cg2d: Sum(rhs),rhsMax =  -1.01408510033707E-07  8.55028281355603E+00
 cg2d: Sum(rhs),rhsMax =  -1.01351844250530E-07  8.55507663782142E+00
 cg2d: Sum(rhs),rhsMax =  -1.01294901355686E-07  8.55986938569464E+00
 cg2d: Sum(rhs),rhsMax =  -1.01238242677937E-07  8.56466907941720E+00
 cg2d: Sum(rhs),rhsMax =  -1.01181711897880E-07  8.56948481849350E+00
 cg2d: Sum(rhs),rhsMax =  -1.01124427942523E-07  8.57432655386490E+00
 cg2d: Sum(rhs),rhsMax =  -1.01066994773191E-07  8.57920482306538E+00
 EXTERNAL_FIELDS_LOAD, it=   3600690 : Reading new data, i0,i1=   12    1 (prev=   11   12 )
 DIC_FIELDS_LOAD, it=   3600690 : Reading new data, i0,i1=   12    1 (prev=   11   12 )
 cg2d: Sum(rhs),rhsMax =  -1.01009099751082E-07  8.58413045456863E+00
 cg2d: Sum(rhs),rhsMax =  -1.00950970249869E-07  8.58908772075261E+00
 cg2d: Sum(rhs),rhsMax =  -1.00892201260194E-07  8.59407113784658E+00
 cg2d: Sum(rhs),rhsMax =  -1.00833979388426E-07  8.59907533504329E+00
 cg2d: Sum(rhs),rhsMax =  -1.00775366718153E-07  8.60409527812640E+00
 cg2d: Sum(rhs),rhsMax =  -1.00716533779632E-07  8.60912639608676E+00
 cg2d: Sum(rhs),rhsMax =  -1.00657807422522E-07  8.61416467727663E+00
 cg2d: Sum(rhs),rhsMax =  -1.00599194752249E-07  8.61920670304104E+00
 cg2d: Sum(rhs),rhsMax =  -1.00540219705181E-07  8.62424959025954E+00
 cg2d: Sum(rhs),rhsMax =  -1.00481713616318E-07  8.62929084710763E+00
 cg2d: Sum(rhs),rhsMax =  -1.00423278581729E-07  8.63432823431656E+00
 cg2d: Sum(rhs),rhsMax =  -1.00365085131671E-07  8.63935967110789E+00
 cg2d: Sum(rhs),rhsMax =  -1.00306984052168E-07  8.64438326330631E+00
 cg2d: Sum(rhs),rhsMax =  -1.00248698231553E-07  8.64939736363611E+00
 cg2d: Sum(rhs),rhsMax =  -1.00191144269957E-07  8.65440069908248E+00
 cg2d: Sum(rhs),rhsMax =  -1.00133568992078E-07  8.65939260929048E+00
 cg2d: Sum(rhs),rhsMax =  -1.00076100295610E-07  8.66437312037654E+00
 cg2d: Sum(rhs),rhsMax =  -1.00019036608501E-07  8.66934290835576E+00
 cg2d: Sum(rhs),rhsMax =  -9.99617597585711E-08  8.67430225124478E+00
 cg2d: Sum(rhs),rhsMax =  -9.99047102823170E-08  8.67925494682890E+00
 cg2d: Sum(rhs),rhsMax =  -9.98482363456787E-08  8.68420608713978E+00
 cg2d: Sum(rhs),rhsMax =  -9.97913716105359E-08  8.68916081980566E+00
 cg2d: Sum(rhs),rhsMax =  -9.97343434505638E-08  8.69412416784580E+00
 cg2d: Sum(rhs),rhsMax =  -9.96773295014464E-08  8.69910085245627E+00
 cg2d: Sum(rhs),rhsMax =  -9.96202871306195E-08  8.70409517445086E+00
 cg2d: Sum(rhs),rhsMax =  -9.95629250155616E-08  8.70911095741398E+00
 cg2d: Sum(rhs),rhsMax =  -9.95059110664442E-08  8.71415148969223E+00
 cg2d: Sum(rhs),rhsMax =  -9.94480160443345E-08  8.71921930590513E+00
 cg2d: Sum(rhs),rhsMax =  -9.93902702361993E-08  8.72431607432102E+00
 cg2d: Sum(rhs),rhsMax =  -9.93317215147727E-08  8.72944261226047E+00
 cg2d: Sum(rhs),rhsMax =  -9.92735280647139E-08  8.73459893266904E+00
 cg2d: Sum(rhs),rhsMax =  -9.92147448641845E-08  8.73978430818157E+00
 cg2d: Sum(rhs),rhsMax =  -9.91560966667748E-08  8.74499735837366E+00
 cg2d: Sum(rhs),rhsMax =  -9.90966526615011E-08  8.75023614706347E+00
 cg2d: Sum(rhs),rhsMax =  -9.90366970654577E-08  8.75549829188909E+00
 cg2d: Sum(rhs),rhsMax =  -9.89772743764661E-08  8.76078107848702E+00
 cg2d: Sum(rhs),rhsMax =  -9.89177024735000E-08  8.76608155580086E+00
 cg2d: Sum(rhs),rhsMax =  -9.88579742511320E-08  8.77139664107964E+00
 cg2d: Sum(rhs),rhsMax =  -9.87977060162848E-08  8.77672320795606E+00
 cg2d: Sum(rhs),rhsMax =  -9.87382264838743E-08  8.78205816635757E+00
(PID.TID 0000.0001) Did not write pickup because writePickupAtEnd = FALSE
 DIC_SURFFORCING_INIT, it=   3600000 : Reading new data, i0,i1=   12    1
 QQ: pCO2 approximation method
 QQ first guess pH 8.2869849781645275,  7.129213793781922,  34.1535348423009,  2.0282,  5.43799999999999991E-4,  8.08490416966378689E-3,  2.3086000000000002
(PID.TID 0000.0001) // =======================================================
(PID.TID 0000.0001) // Model current state
(PID.TID 0000.0001) // =======================================================
(PID.TID 0000.0001) 
 EXTERNAL_FIELDS_LOAD, it=   3600000 : Reading new data, i0,i1=   12    1 (prev=   12    0 )
 DIC_FIELDS_LOAD, it=   3600000 : Reading new data, i0,i1=   12    1 (prev=   12    0 )
 cg2d: Sum(rhs),rhsMax =  -9.92433868418630E-08  8.73439671821315E+00
 cg2d: Sum(rhs),rhsMax =  -9.91844260056496E-08  8.73957958587058E+00
 cg2d: Sum(rhs),rhsMax =  -9.91252449011881E-08  8.74478969091806E+00
 cg2d: Sum(rhs),rhsMax =  -9.90665185440776E-08  8.75002495477880E+00
 cg2d: Sum(rhs),rhsMax =  -9.90068542705558E-08  8.75528284057604E+00
 cg2d: Sum(rhs),rhsMax =  -9.89473534218632E-08  8.76056047500076E+00
 cg2d: Sum(rhs),rhsMax =  -9.88878241514612E-08  8.76585475900637E+00
 cg2d: Sum(rhs),rhsMax =  -9.88279893476829E-08  8.77116249138180E+00
 cg2d: Sum(rhs),rhsMax =  -9.87682469144602E-08  8.77648047471154E+00
 cg2d: Sum(rhs),rhsMax =  -9.87087602766223E-08  8.78180560756084E+00
 cg2d: Sum(rhs),rhsMax =  -9.86489112619893E-08  8.78713494778165E+00
 cg2d: Sum(rhs),rhsMax =  -9.85891404070571E-08  8.79246575399440E+00
 cg2d: Sum(rhs),rhsMax =  -9.85293340249882E-08  8.79779549299699E+00
 cg2d: Sum(rhs),rhsMax =  -9.84700747608258E-08  8.80312181092759E+00
 cg2d: Sum(rhs),rhsMax =  -9.84108581292276E-08  8.80844249631459E+00
 cg2d: Sum(rhs),rhsMax =  -9.83516486030567E-08  8.81375547068360E+00
 cg2d: Sum(rhs),rhsMax =  -9.82926522397065E-08  8.81905885446822E+00
 cg2d: Sum(rhs),rhsMax =  -9.82337553523394E-08  8.82435106608147E+00
 cg2d: Sum(rhs),rhsMax =  -9.81751568929212E-08  8.82963093738125E+00
 cg2d: Sum(rhs),rhsMax =  -9.81166650149135E-08  8.83489782452132E+00
 cg2d: Sum(rhs),rhsMax =  -9.80585213028462E-08  8.84015168145881E+00
 cg2d: Sum(rhs),rhsMax =  -9.80007470730015E-08  8.84539306572338E+00
 cg2d: Sum(rhs),rhsMax =  -9.79429586323022E-08  8.85062306296846E+00
 cg2d: Sum(rhs),rhsMax =  -9.78853904598509E-08  8.85584316140559E+00
 cg2d: Sum(rhs),rhsMax =  -9.78280425556477E-08  8.86105508303604E+00
 cg2d: Sum(rhs),rhsMax =  -9.77709291305473E-08  8.86626061391844E+00
 cg2d: Sum(rhs),rhsMax =  -9.77132472712583E-08  8.87146147123075E+00
 cg2d: Sum(rhs),rhsMax =  -9.76563327981239E-08  8.87665923110881E+00
 cg2d: Sum(rhs),rhsMax =  -9.75990843699037E-08  8.88185530584736E+00
 cg2d: Sum(rhs),rhsMax =  -9.75420704207863E-08  8.88705095973601E+00
 EXTERNAL_FIELDS_LOAD, it=   3600030 : Reading new data, i0,i1=    1    2 (prev=   12    1 )
 DIC_FIELDS_LOAD, it=   3600030 : Reading new data, i0,i1=    1    2 (prev=   12    1 )
 cg2d: Sum(rhs),rhsMax =  -9.74853406887632E-08  8.89224735691429E+00
 cg2d: Sum(rhs),rhsMax =  -9.74287814869967E-08  8.89742706375180E+00
 cg2d: Sum(rhs),rhsMax =  -9.73723857100595E-08  8.90258000132907E+00
 cg2d: Sum(rhs),rhsMax =  -9.73164659967551E-08  8.90769672951691E+00
 cg2d: Sum(rhs),rhsMax =  -9.72612284044772E-08  8.91276878246959E+00
 cg2d: Sum(rhs),rhsMax =  -9.72070637317302E-08  8.91778889429735E+00
 cg2d: Sum(rhs),rhsMax =  -9.71530482729577E-08  8.92275113682099E+00
 cg2d: Sum(rhs),rhsMax =  -9.70993241367069E-08  8.92765100404361E+00
 cg2d: Sum(rhs),rhsMax =  -9.70471916161841E-08  8.93248545016401E+00
 cg2d: Sum(rhs),rhsMax =  -9.69955280538670E-08  8.93725287491615E+00
 cg2d: Sum(rhs),rhsMax =  -9.69441273923621E-08  8.94195305183593E+00
 cg2d: Sum(rhs),rhsMax =  -9.68941833434656E-08  8.94658701582531E+00
 cg2d: Sum(rhs),rhsMax =  -9.68450208915783E-08  8.95115692214719E+00
 cg2d: Sum(rhs),rhsMax =  -9.67962705544778E-08  8.95566589123099E+00
 cg2d: Sum(rhs),rhsMax =  -9.67482165492584E-08  8.96011786358850E+00
 cg2d: Sum(rhs),rhsMax =  -9.67008020325011E-08  8.96451747891563E+00
 cg2d: Sum(rhs),rhsMax =  -9.66539346336504E-08  8.96886998187158E+00
 cg2d: Sum(rhs),rhsMax =  -9.66078843589457E-08  8.97318115409823E+00
 cg2d: Sum(rhs),rhsMax =  -9.65621254067628E-08  8.97745726495199E+00
 cg2d: Sum(rhs),rhsMax =  -9.65159685506478E-08  8.98170502198163E+00
 cg2d: Sum(rhs),rhsMax =  -9.64709272466280E-08  8.98593151889555E+00
 cg2d: Sum(rhs),rhsMax =  -9.64258006774799E-08  8.99014423145949E+00
 cg2d: Sum(rhs),rhsMax =  -9.63806954246138E-08  8.99435085408351E+00
 cg2d: Sum(rhs),rhsMax =  -9.63354978011921E-08  8.99855914272681E+00
 cg2d: Sum(rhs),rhsMax =  -9.62904493917449E-08  9.00277662786875E+00
 cg2d: Sum(rhs),rhsMax =  -9.62449746566563E-08  9.00700998220796E+00
 cg2d: Sum(rhs),rhsMax =  -9.61997557169525E-08  9.01126574761483E+00
 cg2d: Sum(rhs),rhsMax =  -9.61540180810516E-08  9.01555039729210E+00
 cg2d: Sum(rhs),rhsMax =  -9.61077120109621E-08  9.01986971435378E+00
 cg2d: Sum(rhs),rhsMax =  -9.60613775191632E-08  9.02422880815445E+00
 cg2d: Sum(rhs),rhsMax =  -9.60143182737738E-08  9.02863205182447E+00
 cg2d: Sum(rhs),rhsMax =  -9.59668398081703E-08  9.03308295193821E+00
 cg2d: Sum(rhs),rhsMax =  -9.59189492277801E-08  9.03758400719746E+00
 cg2d: Sum(rhs),rhsMax =  -9.58706323217484E-08  9.04213663854453E+00
 cg2d: Sum(rhs),rhsMax =  -9.58215622404168E-08  9.04674109185253E+00
 cg2d: Sum(rhs),rhsMax =  -9.57721724148541E-08  9.05139640217902E+00
 cg2d: Sum(rhs),rhsMax =  -9.57223775799321E-08  9.05610040614876E+00
 cg2d: Sum(rhs),rhsMax =  -9.56718224642827E-08  9.06084979109159E+00
 cg2d: Sum(rhs),rhsMax =  -9.56211039238042E-08  9.06564017672268E+00
 cg2d: Sum(rhs),rhsMax =  -9.55700798499493E-08  9.07046622792088E+00
 cg2d: Sum(rhs),rhsMax =  -9.55189918272481E-08  9.07532179655311E+00
 cg2d: Sum(rhs),rhsMax =  -9.54672145780933E-08  9.08020008054443E+00
 cg2d: Sum(rhs),rhsMax =  -9.54156860188959E-08  9.08509379067778E+00
 cg2d: Sum(rhs),rhsMax =  -9.53640864054250E-08  9.08999532389517E+00
 cg2d: Sum(rhs),rhsMax =  -9.53120391500306E-08  9.09489685062687E+00
 cg2d: Sum(rhs),rhsMax =  -9.52604963799786E-08  9.09979078670731E+00
 cg2d: Sum(rhs),rhsMax =  -9.52091738781746E-08  9.10466952325132E+00
 cg2d: Sum(rhs),rhsMax =  -9.51581995423112E-08  9.10952586151125E+00
 cg2d: Sum(rhs),rhsMax =  -9.51075378452515E-08  9.11435305322486E+00
 cg2d: Sum(rhs),rhsMax =  -9.50568974644739E-08  9.11914489544444E+00
 cg2d: Sum(rhs),rhsMax =  -9.50070173644235E-08  9.12389583482653E+00
 cg2d: Sum(rhs),rhsMax =  -9.49582670273230E-08  9.12860106773695E+00
 cg2d: Sum(rhs),rhsMax =  -9.49094669522310E-08  9.13325671324743E+00
 cg2d: Sum(rhs),rhsMax =  -9.48612637330370E-08  9.13785989332165E+00
 cg2d: Sum(rhs),rhsMax =  -9.48139060596986E-08  9.14240888612431E+00
 cg2d: Sum(rhs),rhsMax =  -9.47671381368309E-08  9.14690322805975E+00
 cg2d: Sum(rhs),rhsMax =  -9.47210025969980E-08  9.15134376400067E+00
 cg2d: Sum(rhs),rhsMax =  -9.46753857533622E-08  9.15573262291172E+00
 cg2d: Sum(rhs),rhsMax =  -9.46305078741716E-08  9.16007311317651E+00
 cg2d: Sum(rhs),rhsMax =  -9.45855020972886E-08  9.16436954661381E+00
 EXTERNAL_FIELDS_LOAD, it=   3600090 : Reading new data, i0,i1=    2    3 (prev=    1    2 )
 DIC_FIELDS_LOAD, it=   3600090 : Reading new data, i0,i1=    2    3 (prev=    1    2 )
 cg2d: Sum(rhs),rhsMax =  -9.45416047670733E-08  9.16862700792054E+00
 cg2d: Sum(rhs),rhsMax =  -9.44977784911316E-08  9.17286965792043E+00
 cg2d: Sum(rhs),rhsMax =  -9.44538882663437E-08  9.17711460232796E+00
 cg2d: Sum(rhs),rhsMax =  -9.44097777733077E-08  9.18137827264839E+00
 cg2d: Sum(rhs),rhsMax =  -9.43655606988614E-08  9.18567586102450E+00
 cg2d: Sum(rhs),rhsMax =  -9.43208533499273E-08  9.19002086507332E+00
 cg2d: Sum(rhs),rhsMax =  -9.42755065125311E-08  9.19442473147613E+00
 cg2d: Sum(rhs),rhsMax =  -9.42294988703907E-08  9.19889660310093E+00
 cg2d: Sum(rhs),rhsMax =  -9.41831217460276E-08  9.20344317156002E+00
 cg2d: Sum(rhs),rhsMax =  -9.41357711781166E-08  9.20806863385625E+00
 cg2d: Sum(rhs),rhsMax =  -9.40875679589226E-08  9.21277472508850E+00
 cg2d: Sum(rhs),rhsMax =  -9.40387323566938E-08  9.21756082935263E+00
 cg2d: Sum(rhs),rhsMax =  -9.39891506845925E-08  9.22242415169496E+00
 cg2d: Sum(rhs),rhsMax =  -9.39387589937724E-08  9.22735992735964E+00
 cg2d: Sum(rhs),rhsMax =  -9.38874578082505E-08  9.23236166048178E+00
 cg2d: Sum(rhs),rhsMax =  -9.38360713576003E-08  9.23742136926884E+00
 cg2d: Sum(rhs),rhsMax =  -9.37847204340869E-08  9.24252982829311E+00
 cg2d: Sum(rhs),rhsMax =  -9.37326518624104E-08  9.24767682825910E+00
 cg2d: Sum(rhs),rhsMax =  -9.36799651185538E-08  9.25285135651627E+00
 cg2d: Sum(rhs),rhsMax =  -9.36278468088858E-08  9.25804181556396E+00
 cg2d: Sum(rhs),rhsMax =  -9.35753803332773E-08  9.26323624437734E+00
 cg2d: Sum(rhs),rhsMax =  -9.35233543941649E-08  9.26842252954541E+00
 cg2d: Sum(rhs),rhsMax =  -9.34712076627875E-08  9.27358855590945E+00
 cg2d: Sum(rhs),rhsMax =  -9.34198851609835E-08  9.27872221865362E+00
 cg2d: Sum(rhs),rhsMax =  -9.33687331894362E-08  9.28381269175841E+00
 cg2d: Sum(rhs),rhsMax =  -9.33183130769066E-08  9.28884990364347E+00
 cg2d: Sum(rhs),rhsMax =  -9.32684542931383E-08  9.29382460831193E+00
 cg2d: Sum(rhs),rhsMax =  -9.32194410552256E-08  9.29872876125425E+00
 cg2d: Sum(rhs),rhsMax =  -9.31711383600486E-08  9.30355578941157E+00
 cg2d: Sum(rhs),rhsMax =  -9.31240364820951E-08  9.30830071441787E+00
 cg2d: Sum(rhs),rhsMax =  -9.30773893514925E-08  9.31296016039586E+00
 cg2d: Sum(rhs),rhsMax =  -9.30318719838397E-08  9.31753230345820E+00
 cg2d: Sum(rhs),rhsMax =  -9.29872783217434E-08  9.32201677457960E+00
 cg2d: Sum(rhs),rhsMax =  -9.29437931063148E-08  9.32641453687162E+00
 cg2d: Sum(rhs),rhsMax =  -9.29007910599466E-08  9.33072777407330E+00
 cg2d: Sum(rhs),rhsMax =  -9.28590253579387E-08  9.33495977832897E+00
 cg2d: Sum(rhs),rhsMax =  -9.28177001924269E-08  9.33911483571782E+00
 cg2d: Sum(rhs),rhsMax =  -9.27770358316593E-08  9.34319809772528E+00
 cg2d: Sum(rhs),rhsMax =  -9.27373591252945E-08  9.34721542637213E+00
 cg2d: Sum(rhs),rhsMax =  -9.26982295368362E-08  9.35117321728378E+00
 cg2d: Sum(rhs),rhsMax =  -9.26594978523099E-08  9.35507820898651E+00
 cg2d: Sum(rhs),rhsMax =  -9.26212777585533E-08  9.35893728101038E+00
 cg2d: Sum(rhs),rhsMax =  -9.25836900478316E-08  9.36275724876052E+00
 cg2d: Sum(rhs),rhsMax =  -9.25467347201447E-08  9.36654466497940E+00
 cg2d: Sum(rhs),rhsMax =  -9.25093388559617E-08  9.37030563739009E+00
 cg2d: Sum(rhs),rhsMax =  -9.24723693174201E-08  9.37404566529748E+00
 cg2d: Sum(rhs),rhsMax =  -9.24358261045199E-08  9.37776950669782E+00
 cg2d: Sum(rhs),rhsMax =  -9.23998015878169E-08  9.38148107939576E+00
 cg2d: Sum(rhs),rhsMax =  -9.23633649563271E-08  9.38518340080342E+00
 cg2d: Sum(rhs),rhsMax =  -9.23271628039402E-08  9.38887856431341E+00
 cg2d: Sum(rhs),rhsMax =  -9.22907545941598E-08  9.39256775253961E+00
 cg2d: Sum(rhs),rhsMax =  -9.22549361348501E-08  9.39625127829926E+00
 cg2d: Sum(rhs),rhsMax =  -9.22186487173349E-08  9.39992865313115E+00
 cg2d: Sum(rhs),rhsMax =  -9.21831713185384E-08  9.40359867110262E+00
 cg2d: Sum(rhs),rhsMax =  -9.21473457538013E-08  9.40725949891390E+00
 cg2d: Sum(rhs),rhsMax =  -9.21119038821416E-08  9.41090875978471E+00
 cg2d: Sum(rhs),rhsMax =  -9.20763412182168E-08  9.41454361858659E+00
 cg2d: Sum(rhs),rhsMax =  -9.20410343496769E-08  9.41816086827301E+00
 cg2d: Sum(rhs),rhsMax =  -9.20060685416502E-08  9.42175701532902E+00
 cg2d: Sum(rhs),rhsMax =  -9.19711879987517E-08  9.42532836100955E+00
 EXTERNAL_FIELDS_LOAD, it=   3600150 : Reading new data, i0,i1=    3    4 (prev=    2    3 )
 DIC_FIELDS_LOAD, it=   3600150 : Reading new data, i0,i1=    3    4 (prev=    2    3 )
 cg2d: Sum(rhs),rhsMax =  -9.19367622032041E-08  9.42887108055882E+00
 cg2d: Sum(rhs),rhsMax =  -9.19030327395376E-08  9.43235832256638E+00
 cg2d: Sum(rhs),rhsMax =  -9.18696727580937E-08  9.43577294710938E+00
 cg2d: Sum(rhs),rhsMax =  -9.18375349101552E-08  9.43909901719340E+00
 cg2d: Sum(rhs),rhsMax =  -9.18056457521743E-08  9.44232226351574E+00
 cg2d: Sum(rhs),rhsMax =  -9.17754618967592E-08  9.44543045713848E+00
 cg2d: Sum(rhs),rhsMax =  -9.17468696570722E-08  9.44841368652191E+00
 cg2d: Sum(rhs),rhsMax =  -9.17188671678559E-08  9.45126453300903E+00
 cg2d: Sum(rhs),rhsMax =  -9.16929749905648E-08  9.45397814472091E+00
 cg2d: Sum(rhs),rhsMax =  -9.16680278351123E-08  9.45655223330268E+00
 cg2d: Sum(rhs),rhsMax =  -9.16445941356869E-08  9.45898700078271E+00
 cg2d: Sum(rhs),rhsMax =  -9.16223754643397E-08  9.46128500172268E+00
 cg2d: Sum(rhs),rhsMax =  -9.16011231311131E-08  9.46345095767279E+00
 cg2d: Sum(rhs),rhsMax =  -9.15811568802383E-08  9.46549153513779E+00
 cg2d: Sum(rhs),rhsMax =  -9.15625619768434E-08  9.46741508859273E+00
 cg2d: Sum(rhs),rhsMax =  -9.15451252581079E-08  9.46923137659912E+00
 cg2d: Sum(rhs),rhsMax =  -9.15285980340741E-08  9.47095124324780E+00
 cg2d: Sum(rhs),rhsMax =  -9.15126108225195E-08  9.47258633929544E+00
 cg2d: Sum(rhs),rhsMax =  -9.14974762622478E-08  9.47414881667898E+00
 cg2d: Sum(rhs),rhsMax =  -9.14831588261222E-08  9.47565102854520E+00
 cg2d: Sum(rhs),rhsMax =  -9.14691185016636E-08  9.47710524161440E+00
 cg2d: Sum(rhs),rhsMax =  -9.14552913400257E-08  9.47852337330871E+00
 cg2d: Sum(rhs),rhsMax =  -9.14417910280463E-08  9.47991675839448E+00
 cg2d: Sum(rhs),rhsMax =  -9.14288023068366E-08  9.48129594936036E+00
 cg2d: Sum(rhs),rhsMax =  -9.14153162057119E-08  9.48267055268677E+00
 cg2d: Sum(rhs),rhsMax =  -9.14016951014673E-08  9.48404910672501E+00
 cg2d: Sum(rhs),rhsMax =  -9.13883866360266E-08  9.48543898881096E+00
 cg2d: Sum(rhs),rhsMax =  -9.13749147457565E-08  9.48684634838855E+00
 cg2d: Sum(rhs),rhsMax =  -9.13611231112554E-08  9.48827608016959E+00
 cg2d: Sum(rhs),rhsMax =  -9.13465854068818E-08  9.48973182637241E+00
 cg2d: Sum(rhs),rhsMax =  -9.13324456064402E-08  9.49121598932757E+00
 cg2d: Sum(rhs),rhsMax =  -9.13176805283911E-08  9.49272976482376E+00
 cg2d: Sum(rhs),rhsMax =  -9.13029793991882E-08  9.49427318407705E+00
 cg2d: Sum(rhs),rhsMax =  -9.12876600978052E-08  9.49584517202971E+00
 cg2d: Sum(rhs),rhsMax =  -9.12722768475760E-08  9.49744362566448E+00
 cg2d: Sum(rhs),rhsMax =  -9.12563962174318E-08  9.49906550905340E+00
 cg2d: Sum(rhs),rhsMax =  -9.12406292741252E-08  9.50070696299551E+00
 cg2d: Sum(rhs),rhsMax =  -9.12245567974423E-08  9.50236342680402E+00
 cg2d: Sum(rhs),rhsMax =  -9.12086122184519E-08  9.50402976802920E+00
 cg2d: Sum(rhs),rhsMax =  -9.11920636781360E-08  9.50570042893596E+00
 cg2d: Sum(rhs),rhsMax =  -9.11760835720088E-08  9.50736956748404E+00
 cg2d: Sum(rhs),rhsMax =  -9.11599897790438E-08  9.50903122489705E+00
 cg2d: Sum(rhs),rhsMax =  -9.11439812512072E-08  9.51067944299842E+00
 cg2d: Sum(rhs),rhsMax =  -9.11286619498242E-08  9.51230836255520E+00
 cg2d: Sum(rhs),rhsMax =  -9.11128452685261E-08  9.51391232343393E+00
 cg2d: Sum(rhs),rhsMax =  -9.10978172896648E-08  9.51548598638282E+00
 cg2d: Sum(rhs),rhsMax =  -9.10825903588375E-08  9.51702443978652E+00
 cg2d: Sum(rhs),rhsMax =  -9.10679744947629E-08  9.51852327194360E+00
 cg2d: Sum(rhs),rhsMax =  -9.10538062726118E-08  9.51997861079381E+00
 cg2d: Sum(rhs),rhsMax =  -9.10403272769145E-08  9.52138713289450E+00
 cg2d: Sum(rhs),rhsMax =  -9.10271680254482E-08  9.52274605554116E+00
 cg2d: Sum(rhs),rhsMax =  -9.10143498344951E-08  9.52405313717331E+00
 cg2d: Sum(rhs),rhsMax =  -9.10022919242692E-08  9.52530666028232E+00
 cg2d: Sum(rhs),rhsMax =  -9.09905324419924E-08  9.52650541109617E+00
 cg2d: Sum(rhs),rhsMax =  -9.09794692915966E-08  9.52764864727963E+00
 cg2d: Sum(rhs),rhsMax =  -9.09689816808168E-08  9.52873605079492E+00
 cg2d: Sum(rhs),rhsMax =  -9.09588422359775E-08  9.52976767849440E+00
 cg2d: Sum(rhs),rhsMax =  -9.09493280687457E-08  9.53074391639987E+00
 cg2d: Sum(rhs),rhsMax =  -9.09404391791213E-08  9.53166530103624E+00
 cg2d: Sum(rhs),rhsMax =  -9.09316284491979E-08  9.53253252588939E+00
 EXTERNAL_FIELDS_LOAD, it=   3600210 : Reading new data, i0,i1=    4    5 (prev=    3    4 )
 DIC_FIELDS_LOAD, it=   3600210 : Reading new data, i0,i1=    4    5 (prev=    3    4 )
 cg2d: Sum(rhs),rhsMax =  -9.09236845814121E-08  9.53334634295211E+00
 cg2d: Sum(rhs),rhsMax =  -9.09162238826866E-08  9.53412016630968E+00
 cg2d: Sum(rhs),rhsMax =  -9.09088555545168E-08  9.53486144691540E+00
 cg2d: Sum(rhs),rhsMax =  -9.09020556605356E-08  9.53557668814411E+00
 cg2d: Sum(rhs),rhsMax =  -9.08950781308704E-08  9.53626990934916E+00
 cg2d: Sum(rhs),rhsMax =  -9.08885269268467E-08  9.53694479201801E+00
 cg2d: Sum(rhs),rhsMax =  -9.08819686173956E-08  9.53760402798875E+00
 cg2d: Sum(rhs),rhsMax =  -9.08758792661502E-08  9.53824943192211E+00
 cg2d: Sum(rhs),rhsMax =  -9.08692001644340E-08  9.53888215688552E+00
 cg2d: Sum(rhs),rhsMax =  -9.08633310814366E-08  9.53950304357000E+00
 cg2d: Sum(rhs),rhsMax =  -9.08575117364308E-08  9.54011304176576E+00
 cg2d: Sum(rhs),rhsMax =  -9.08516142317239E-08  9.54071301635899E+00
 cg2d: Sum(rhs),rhsMax =  -9.08458943627011E-08  9.54130322912294E+00
 cg2d: Sum(rhs),rhsMax =  -9.08400252797037E-08  9.54188272003942E+00
 cg2d: Sum(rhs),rhsMax =  -9.08349306882883E-08  9.54244934290944E+00
 cg2d: Sum(rhs),rhsMax =  -9.08295305634965E-08  9.54299999628384E+00
 cg2d: Sum(rhs),rhsMax =  -9.08241872821236E-08  9.54353092308816E+00
 cg2d: Sum(rhs),rhsMax =  -9.08189861092978E-08  9.54403796863502E+00
 cg2d: Sum(rhs),rhsMax =  -9.08142894218145E-08  9.54451678452915E+00
 cg2d: Sum(rhs),rhsMax =  -9.08097916862971E-08  9.54496303374895E+00
 cg2d: Sum(rhs),rhsMax =  -9.08056705384297E-08  9.54537256688658E+00
 cg2d: Sum(rhs),rhsMax =  -9.08016417611179E-08  9.54574155534994E+00
 cg2d: Sum(rhs),rhsMax =  -9.07979256226099E-08  9.54606657177462E+00
 cg2d: Sum(rhs),rhsMax =  -9.07952681927782E-08  9.54634467959792E+00
 cg2d: Sum(rhs),rhsMax =  -9.07924189164078E-08  9.54657345840157E+00
 cg2d: Sum(rhs),rhsMax =  -9.07902162339269E-08  9.54675102924543E+00
 cg2d: Sum(rhs),rhsMax =  -9.07886743561903E-08  9.54687605379506E+00
 cg2d: Sum(rhs),rhsMax =  -9.07877648614885E-08  9.54694771403842E+00
 cg2d: Sum(rhs),rhsMax =  -9.07869193156330E-08  9.54696566951997E+00
 cg2d: Sum(rhs),rhsMax =  -9.07865995714019E-08  9.54692999068711E+00
 cg2d: Sum(rhs),rhsMax =  -9.07872106381546E-08  9.54684108541375E+00
 cg2d: Sum(rhs),rhsMax =  -9.07884682987969E-08  9.54669963264824E+00
 cg2d: Sum(rhs),rhsMax =  -9.07898467517043E-08  9.54650651972953E+00
 cg2d: Sum(rhs),rhsMax =  -9.07915449488428E-08  9.54626274758502E+00
 cg2d: Sum(rhs),rhsMax =  -9.07941455352557E-08  9.54596935750525E+00
 cg2d: Sum(rhs),rhsMax =  -9.07970800767544E-08  9.54562738075971E+00
 cg2d: Sum(rhs),rhsMax =  -9.08000501453898E-08  9.54523778248193E+00
 cg2d: Sum(rhs),rhsMax =  -9.08038089164620E-08  9.54480140259877E+00
 cg2d: Sum(rhs),rhsMax =  -9.08078732209106E-08  9.54431888382345E+00
 cg2d: Sum(rhs),rhsMax =  -9.08128896526250E-08  9.54379063440704E+00
 cg2d: Sum(rhs),rhsMax =  -9.08179274006216E-08  9.54321682610369E+00
 cg2d: Sum(rhs),rhsMax =  -9.08231072571652E-08  9.54259741627488E+00
 cg2d: Sum(rhs),rhsMax =  -9.08294239820862E-08  9.54193218180504E+00
 cg2d: Sum(rhs),rhsMax =  -9.08357407070071E-08  9.54122075566689E+00
 cg2d: Sum(rhs),rhsMax =  -9.08426116552619E-08  9.54046266149910E+00
 cg2d: Sum(rhs),rhsMax =  -9.08497668206110E-08  9.53965734943055E+00
 cg2d: Sum(rhs),rhsMax =  -9.08576467395505E-08  9.53880424419014E+00
 cg2d: Sum(rhs),rhsMax =  -9.08659032461401E-08  9.53790282192021E+00
 cg2d: Sum(rhs),rhsMax =  -9.08746713434994E-08  9.53695268180845E+00
 cg2d: Sum(rhs),rhsMax =  -9.08840078750472E-08  9.53595362230667E+00
 cg2d: Sum(rhs),rhsMax =  -9.08936215182621E-08  9.53490571447803E+00
 cg2d: Sum(rhs),rhsMax =  -9.09042654484438E-08  9.53380930168364E+00
 cg2d: Sum(rhs),rhsMax =  -9.09145470018302E-08  9.53266493640869E+00
 cg2d: Sum(rhs),rhsMax =  -9.09259227910297E-08  9.53147332889492E+00
 cg2d: Sum(rhs),rhsMax =  -9.09384141323244E-08  9.53023537646442E+00
 cg2d: Sum(rhs),rhsMax =  -9.09505217805417E-08  9.52895220993865E+00
 cg2d: Sum(rhs),rhsMax =  -9.09629278567081E-08  9.52762520262973E+00
 cg2d: Sum(rhs),rhsMax =  -9.09757815747980E-08  9.52625594300855E+00
 cg2d: Sum(rhs),rhsMax =  -9.09892747813501E-08  9.52484621149773E+00
 cg2d: Sum(rhs),rhsMax =  -9.10029882561503E-08  9.52339794221070E+00
 EXTERNAL_FIELDS_LOAD, it=   3600270 : Reading new data, i0,i1=    5    6 (prev=    4    5 )
 DIC_FIELDS_LOAD, it=   3600270 : Reading new data, i0,i1=    5    6 (prev=    4    5 )
 cg2d: Sum(rhs),rhsMax =  -9.10169930534721E-08  9.52191318167782E+00
 cg2d: Sum(rhs),rhsMax =  -9.10311257484864E-08  9.52041761022813E+00
 cg2d: Sum(rhs),rhsMax =  -9.10455213443129E-08  9.51892843351038E+00
 cg2d: Sum(rhs),rhsMax =  -9.10593485059508E-08  9.51746258399289E+00
 cg2d: Sum(rhs),rhsMax =  -9.10729625047679E-08  9.51603636817957E+00
 cg2d: Sum(rhs),rhsMax =  -9.10860507019606E-08  9.51466517931999E+00
 cg2d: Sum(rhs),rhsMax =  -9.10986344138109E-08  9.51336322967766E+00
 cg2d: Sum(rhs),rhsMax =  -9.11102233658312E-08  9.51214329321166E+00
 cg2d: Sum(rhs),rhsMax =  -9.11212367782355E-08  9.51101645114812E+00
 cg2d: Sum(rhs),rhsMax =  -9.11308219997409E-08  9.50999185515969E+00
 cg2d: Sum(rhs),rhsMax =  -9.11397606273567E-08  9.50907652378690E+00
 cg2d: Sum(rhs),rhsMax =  -9.11473847509114E-08  9.50827517814543E+00
 cg2d: Sum(rhs),rhsMax =  -9.11540354309182E-08  9.50759014752173E+00
 cg2d: Sum(rhs),rhsMax =  -9.11595421371203E-08  9.50702134377118E+00
 cg2d: Sum(rhs),rhsMax =  -9.11640682943471E-08  9.50656629011210E+00
 cg2d: Sum(rhs),rhsMax =  -9.11673012637948E-08  9.50622019182364E+00
 cg2d: Sum(rhs),rhsMax =  -9.11696744765322E-08  9.50597606771963E+00
 cg2d: Sum(rhs),rhsMax =  -9.11708539774736E-08  9.50582494250500E+00
 cg2d: Sum(rhs),rhsMax =  -9.11716497853376E-08  9.50575608648473E+00
 cg2d: Sum(rhs),rhsMax =  -9.11714224116622E-08  9.50575729587021E+00
 cg2d: Sum(rhs),rhsMax =  -9.11708468720462E-08  9.50581523373235E+00
 cg2d: Sum(rhs),rhsMax =  -9.11699018502077E-08  9.50591575069248E+00
 cg2d: Sum(rhs),rhsMax =  -9.11685589244371E-08  9.50604420974297E+00
 cg2d: Sum(rhs),rhsMax =  -9.11669744141363E-08  9.50618583284504E+00
 cg2d: Sum(rhs),rhsMax =  -9.11656883317846E-08  9.50632606101357E+00
 cg2d: Sum(rhs),rhsMax =  -9.11643525114414E-08  9.50645090757042E+00
 cg2d: Sum(rhs),rhsMax =  -9.11635567035773E-08  9.50654729113363E+00
 cg2d: Sum(rhs),rhsMax =  -9.11632938027651E-08  9.50660334354173E+00
 cg2d: Sum(rhs),rhsMax =  -9.11633009081925E-08  9.50660868062301E+00
 cg2d: Sum(rhs),rhsMax =  -9.11639332912273E-08  9.50655462562515E+00
 cg2d: Sum(rhs),rhsMax =  -9.11649706836215E-08  9.50643436311089E+00
 cg2d: Sum(rhs),rhsMax =  -9.11672302095212E-08  9.50624304674150E+00
 cg2d: Sum(rhs),rhsMax =  -9.11696460548228E-08  9.50597781905916E+00
 cg2d: Sum(rhs),rhsMax =  -9.11727440211507E-08  9.50563777710892E+00
 cg2d: Sum(rhs),rhsMax =  -9.11770854372662E-08  9.50522393135291E+00
 cg2d: Sum(rhs),rhsMax =  -9.11816186999204E-08  9.50473911463816E+00
 cg2d: Sum(rhs),rhsMax =  -9.11870614572763E-08  9.50418773930678E+00
 cg2d: Sum(rhs),rhsMax =  -9.11928168534359E-08  9.50357558691374E+00
 cg2d: Sum(rhs),rhsMax =  -9.11992827923314E-08  9.50290964447458E+00
 cg2d: Sum(rhs),rhsMax =  -9.12065729608003E-08  9.50219791542795E+00
 cg2d: Sum(rhs),rhsMax =  -9.12139270781154E-08  9.50144918276843E+00
 cg2d: Sum(rhs),rhsMax =  -9.12212811954305E-08  9.50067274580360E+00
 cg2d: Sum(rhs),rhsMax =  -9.12293955934729E-08  9.49987815929010E+00
 cg2d: Sum(rhs),rhsMax =  -9.12369131356172E-08  9.49907498366882E+00
 cg2d: Sum(rhs),rhsMax =  -9.12447788437021E-08  9.49827255755378E+00
 cg2d: Sum(rhs),rhsMax =  -9.12528008711888E-08  9.49747978836020E+00
 cg2d: Sum(rhs),rhsMax =  -9.12602686753416E-08  9.49670496341604E+00
 cg2d: Sum(rhs),rhsMax =  -9.12679780640246E-08  9.49595558374171E+00
 cg2d: Sum(rhs),rhsMax =  -9.12747850634332E-08  9.49523821505845E+00
 cg2d: Sum(rhs),rhsMax =  -9.12811941589098E-08  9.49455836839740E+00
 cg2d: Sum(rhs),rhsMax =  -9.12878306280618E-08  9.49392042323925E+00
 cg2d: Sum(rhs),rhsMax =  -9.12937139219139E-08  9.49332754785973E+00
 cg2d: Sum(rhs),rhsMax =  -9.12992632606802E-08  9.49278165465699E+00
 cg2d: Sum(rhs),rhsMax =  -9.13035833605136E-08  9.49228339433203E+00
 cg2d: Sum(rhs),rhsMax =  -9.13086424247922E-08  9.49183218209292E+00
 cg2d: Sum(rhs),rhsMax =  -9.13127422563775E-08  9.49142625728328E+00
 cg2d: Sum(rhs),rhsMax =  -9.13163518134752E-08  9.49106276286301E+00
 cg2d: Sum(rhs),rhsMax =  -9.13194782015125E-08  9.49073783789306E+00
 cg2d: Sum(rhs),rhsMax =  -9.13225406407037E-08  9.49044672400271E+00
 cg2d: Sum(rhs),rhsMax =  -9.13253046519458E-08  9.49018390323782E+00
 EXTERNAL_FIELDS_LOAD, it=   3600330 : Reading new data, i0,i1=    6    7 (prev=    5    6 )
 DIC_FIELDS_LOAD, it=   3600330 : Reading new data, i0,i1=    6    7 (prev=    5    6 )
 cg2d: Sum(rhs),rhsMax =  -9.13276210212643E-08  9.48994325700856E+00
 cg2d: Sum(rhs),rhsMax =  -9.13303352945150E-08  9.48970801758053E+00
 cg2d: Sum(rhs),rhsMax =  -9.13328221940901E-08  9.48946471682098E+00
 cg2d: Sum(rhs),rhsMax =  -9.13353943587936E-08  9.48919980375378E+00
 cg2d: Sum(rhs),rhsMax =  -9.13383644274290E-08  9.48889996251626E+00
 cg2d: Sum(rhs),rhsMax =  -9.13418460868343E-08  9.48855235316500E+00
 cg2d: Sum(rhs),rhsMax =  -9.13461093432488E-08  9.48814487205053E+00
 cg2d: Sum(rhs),rhsMax =  -9.13508344524416E-08  9.48766639266868E+00
 cg2d: Sum(rhs),rhsMax =  -9.13563624749258E-08  9.48710698236420E+00
 cg2d: Sum(rhs),rhsMax =  -9.13624518261713E-08  9.48645808347463E+00
 cg2d: Sum(rhs),rhsMax =  -9.13698130489138E-08  9.48571268422533E+00
 cg2d: Sum(rhs),rhsMax =  -9.13783111400335E-08  9.48486545850383E+00
 cg2d: Sum(rhs),rhsMax =  -9.13876760932908E-08  9.48391285858374E+00
 cg2d: Sum(rhs),rhsMax =  -9.13977800109933E-08  9.48285315351105E+00
 cg2d: Sum(rhs),rhsMax =  -9.14093334358768E-08  9.48168641391458E+00
 cg2d: Sum(rhs),rhsMax =  -9.14215760872139E-08  9.48041445516485E+00
 cg2d: Sum(rhs),rhsMax =  -9.14348703418000E-08  9.47904073781749E+00
 cg2d: Sum(rhs),rhsMax =  -9.14490314585237E-08  9.47757022510765E+00
 cg2d: Sum(rhs),rhsMax =  -9.14641802296501E-08  9.47600920384239E+00
 cg2d: Sum(rhs),rhsMax =  -9.14802384954783E-08  9.47436507523804E+00
 cg2d: Sum(rhs),rhsMax =  -9.14970428311790E-08  9.47264612546539E+00
 cg2d: Sum(rhs),rhsMax =  -9.15143658630768E-08  9.47086128598380E+00
 cg2d: Sum(rhs),rhsMax =  -9.15317244221114E-08  9.46901988541289E+00
 cg2d: Sum(rhs),rhsMax =  -9.15503548526431E-08  9.46713139755286E+00
 cg2d: Sum(rhs),rhsMax =  -9.15688005420634E-08  9.46520519129246E+00
 cg2d: Sum(rhs),rhsMax =  -9.15879354579374E-08  9.46325027783096E+00
 cg2d: Sum(rhs),rhsMax =  -9.16070561629567E-08  9.46127510172983E+00
 cg2d: Sum(rhs),rhsMax =  -9.16269016215665E-08  9.45928736176468E+00
 cg2d: Sum(rhs),rhsMax =  -9.16458375854745E-08  9.45729384446051E+00
 cg2d: Sum(rhs),rhsMax =  -9.16652354021608E-08  9.45530032221759E+00
 cg2d: Sum(rhs),rhsMax =  -9.16847469056847E-08  9.45331147339530E+00
 cg2d: Sum(rhs),rhsMax =  -9.17041660386531E-08  9.45133082537812E+00
 cg2d: Sum(rhs),rhsMax =  -9.17234714847837E-08  9.44936073119909E+00
 cg2d: Sum(rhs),rhsMax =  -9.17423008672813E-08  9.44740238220463E+00
 cg2d: Sum(rhs),rhsMax =  -9.17614002560185E-08  9.44545585645758E+00
 cg2d: Sum(rhs),rhsMax =  -9.17801870059520E-08  9.44352020252140E+00
 cg2d: Sum(rhs),rhsMax =  -9.17989737558855E-08  9.44159355733174E+00
 cg2d: Sum(rhs),rhsMax =  -9.18179097197935E-08  9.43967327626014E+00
 cg2d: Sum(rhs),rhsMax =  -9.18367177860091E-08  9.43775607395104E+00
 cg2d: Sum(rhs),rhsMax =  -9.18552629514124E-08  9.43583817490269E+00
 cg2d: Sum(rhs),rhsMax =  -9.18742912858761E-08  9.43391546318717E+00
 cg2d: Sum(rhs),rhsMax =  -9.18933977800407E-08  9.43198362529795E+00
 cg2d: Sum(rhs),rhsMax =  -9.19123053222393E-08  9.43003828806143E+00
 cg2d: Sum(rhs),rhsMax =  -9.19319091963189E-08  9.42807514245689E+00
 cg2d: Sum(rhs),rhsMax =  -9.19516196518089E-08  9.42609005034801E+00
 cg2d: Sum(rhs),rhsMax =  -9.19711453661876E-08  9.42407914155286E+00
 cg2d: Sum(rhs),rhsMax =  -9.19916374186869E-08  9.42203890101561E+00
 cg2d: Sum(rhs),rhsMax =  -9.20122005254598E-08  9.41996625280574E+00
 cg2d: Sum(rhs),rhsMax =  -9.20328773190704E-08  9.41785862954787E+00
 cg2d: Sum(rhs),rhsMax =  -9.20541722848611E-08  9.41571402403211E+00
 cg2d: Sum(rhs),rhsMax =  -9.20761920042423E-08  9.41353104362712E+00
 cg2d: Sum(rhs),rhsMax =  -9.20975224971698E-08  9.41130897700722E+00
 cg2d: Sum(rhs),rhsMax =  -9.21202243375774E-08  9.40904782014454E+00
 cg2d: Sum(rhs),rhsMax =  -9.21427556477283E-08  9.40674826682519E+00
 cg2d: Sum(rhs),rhsMax =  -9.21658624974953E-08  9.40441167656376E+00
 cg2d: Sum(rhs),rhsMax =  -9.21897651551262E-08  9.40204003109270E+00
 cg2d: Sum(rhs),rhsMax =  -9.22136393910478E-08  9.39963588692061E+00
 cg2d: Sum(rhs),rhsMax =  -9.22377765277815E-08  9.39720232327049E+00
 cg2d: Sum(rhs),rhsMax =  -9.22617147125493E-08  9.39474287623570E+00
 cg2d: Sum(rhs),rhsMax =  -9.22866476571471E-08  9.39226147078604E+00
 EXTERNAL_FIELDS_LOAD, it=   3600390 : Reading new data, i0,i1=    7    8 (prev=    6    7 )
 DIC_FIELDS_LOAD, it=   3600390 : Reading new data, i0,i1=    7    8 (prev=    6    7 )
 cg2d: Sum(rhs),rhsMax =  -9.23120353490958E-08  9.38976233427929E+00
 cg2d: Sum(rhs),rhsMax =  -9.23369185557021E-08  9.38724381347799E+00
 cg2d: Sum(rhs),rhsMax =  -9.23620930848301E-08  9.38470550458213E+00
 cg2d: Sum(rhs),rhsMax =  -9.23878431535741E-08  9.38214640732935E+00
 cg2d: Sum(rhs),rhsMax =  -9.24133303215058E-08  9.37956498127073E+00
 cg2d: Sum(rhs),rhsMax =  -9.24395564538827E-08  9.37695924403383E+00
 cg2d: Sum(rhs),rhsMax =  -9.24659673273709E-08  9.37432689628576E+00
 cg2d: Sum(rhs),rhsMax =  -9.24926268908166E-08  9.37166545130188E+00
 cg2d: Sum(rhs),rhsMax =  -9.25199330481519E-08  9.36897236493602E+00
 cg2d: Sum(rhs),rhsMax =  -9.25472107837777E-08  9.36624514198210E+00
 cg2d: Sum(rhs),rhsMax =  -9.25749148450450E-08  9.36348144222541E+00
 cg2d: Sum(rhs),rhsMax =  -9.26027894365689E-08  9.36067916467522E+00
 cg2d: Sum(rhs),rhsMax =  -9.26316801042049E-08  9.35783651518778E+00
 cg2d: Sum(rhs),rhsMax =  -9.26604357687211E-08  9.35495205473915E+00
 cg2d: Sum(rhs),rhsMax =  -9.26899872411013E-08  9.35202472862356E+00
 cg2d: Sum(rhs),rhsMax =  -9.27198087197212E-08  9.34905386050751E+00
 cg2d: Sum(rhs),rhsMax =  -9.27502270542391E-08  9.34603912446753E+00
 cg2d: Sum(rhs),rhsMax =  -9.27809580275607E-08  9.34298052032945E+00
 cg2d: Sum(rhs),rhsMax =  -9.28122148025068E-08  9.33987837125357E+00
 cg2d: Sum(rhs),rhsMax =  -9.28438836922396E-08  9.33673332003228E+00
 cg2d: Sum(rhs),rhsMax =  -9.28756591633828E-08  9.33354631509102E+00
 cg2d: Sum(rhs),rhsMax =  -9.29085999246126E-08  9.33031856217985E+00
 cg2d: Sum(rhs),rhsMax =  -9.29414056827227E-08  9.32705144157814E+00
 cg2d: Sum(rhs),rhsMax =  -9.29742824951063E-08  9.32374640924821E+00
 cg2d: Sum(rhs),rhsMax =  -9.30079835370634E-08  9.32040491207867E+00
 cg2d: Sum(rhs),rhsMax =  -9.30417982658582E-08  9.31702830536998E+00
 cg2d: Sum(rhs),rhsMax =  -9.30764798567907E-08  9.31361778906816E+00
 cg2d: Sum(rhs),rhsMax =  -9.31104011669959E-08  9.31017435680010E+00
 cg2d: Sum(rhs),rhsMax =  -9.31454593455783E-08  9.30669874783390E+00
 cg2d: Sum(rhs),rhsMax =  -9.31809367443748E-08  9.30319140183628E+00
 cg2d: Sum(rhs),rhsMax =  -9.32159238686836E-08  9.29965242032067E+00
 cg2d: Sum(rhs),rhsMax =  -9.32518702256857E-08  9.29608155387300E+00
 cg2d: Sum(rhs),rhsMax =  -9.32883352788849E-08  9.29247816276956E+00
 cg2d: Sum(rhs),rhsMax =  -9.33245232204172E-08  9.28884120452690E+00
 cg2d: Sum(rhs),rhsMax =  -9.33613577558390E-08  9.28516924951164E+00
 cg2d: Sum(rhs),rhsMax =  -9.33982562401070E-08  9.28146051649491E+00
 cg2d: Sum(rhs),rhsMax =  -9.34364479121541E-08  9.27771291851975E+00
 cg2d: Sum(rhs),rhsMax =  -9.34740143065937E-08  9.27392411497484E+00
 cg2d: Sum(rhs),rhsMax =  -9.35126251988549E-08  9.27009157616147E+00
 cg2d: Sum(rhs),rhsMax =  -9.35518329470142E-08  9.26621266064052E+00
 cg2d: Sum(rhs),rhsMax =  -9.35912964905583E-08  9.26228469753356E+00
 cg2d: Sum(rhs),rhsMax =  -9.36311082000429E-08  9.25830502540661E+00
 cg2d: Sum(rhs),rhsMax =  -9.36718080879473E-08  9.25427104022615E+00
 cg2d: Sum(rhs),rhsMax =  -9.37130835154676E-08  9.25018025806528E+00
 cg2d: Sum(rhs),rhsMax =  -9.37547639523473E-08  9.24603037476154E+00
 cg2d: Sum(rhs),rhsMax =  -9.37974888870485E-08  9.24181932462259E+00
 cg2d: Sum(rhs),rhsMax =  -9.38402919814507E-08  9.23754533703139E+00
 cg2d: Sum(rhs),rhsMax =  -9.38843172093584E-08  9.23320698439808E+00
 cg2d: Sum(rhs),rhsMax =  -9.39290814017113E-08  9.22880321317793E+00
 cg2d: Sum(rhs),rhsMax =  -9.39739734917566E-08  9.22433335164241E+00
 cg2d: Sum(rhs),rhsMax =  -9.40200521881707E-08  9.21979710173837E+00
 cg2d: Sum(rhs),rhsMax =  -9.40667135296280E-08  9.21519452384442E+00
 cg2d: Sum(rhs),rhsMax =  -9.41140712029664E-08  9.21052602027441E+00
 cg2d: Sum(rhs),rhsMax =  -9.41621181027585E-08  9.20579231856880E+00
 cg2d: Sum(rhs),rhsMax =  -9.42108115964402E-08  9.20099445172383E+00
 cg2d: Sum(rhs),rhsMax =  -9.42603506359774E-08  9.19613373409314E+00
 cg2d: Sum(rhs),rhsMax =  -9.43106570616692E-08  9.19121172891709E+00
 cg2d: Sum(rhs),rhsMax =  -9.43619582471911E-08  9.18623021276131E+00
 cg2d: Sum(rhs),rhsMax =  -9.44129254776271E-08  9.18119115032627E+00
 cg2d: Sum(rhs),rhsMax =  -9.44648874678933E-08  9.17609666859133E+00
 EXTERNAL_FIELDS_LOAD, it=   3600450 : Reading new data, i0,i1=    8    9 (prev=    7    8 )
 DIC_FIELDS_LOAD, it=   3600450 : Reading new data, i0,i1=    8    9 (prev=    7    8 )
 cg2d: Sum(rhs),rhsMax =  -9.45180929079470E-08  9.17094900539886E+00
 cg2d: Sum(rhs),rhsMax =  -9.45713196642828E-08  9.16576037761048E+00
 cg2d: Sum(rhs),rhsMax =  -9.46249869571147E-08  9.16053907873528E+00
 cg2d: Sum(rhs),rhsMax =  -9.46787679367844E-08  9.15529303788953E+00
 cg2d: Sum(rhs),rhsMax =  -9.47327123412833E-08  9.15002961005962E+00
 cg2d: Sum(rhs),rhsMax =  -9.47873814993727E-08  9.14475542293395E+00
 cg2d: Sum(rhs),rhsMax =  -9.48415888046839E-08  9.13947626776025E+00
 cg2d: Sum(rhs),rhsMax =  -9.48963148061921E-08  9.13419703804716E+00
 cg2d: Sum(rhs),rhsMax =  -9.49505718494947E-08  9.12892171232682E+00
 cg2d: Sum(rhs),rhsMax =  -9.50055820680973E-08  9.12365335338700E+00
 cg2d: Sum(rhs),rhsMax =  -9.50602441207593E-08  9.11839411243203E+00
 cg2d: Sum(rhs),rhsMax =  -9.51149274897034E-08  9.11314523538299E+00
 cg2d: Sum(rhs),rhsMax =  -9.51689713701853E-08  9.10790707134369E+00
 cg2d: Sum(rhs),rhsMax =  -9.52241663298992E-08  9.10267908920085E+00
 cg2d: Sum(rhs),rhsMax =  -9.52785583763216E-08  9.09745990818067E+00
 cg2d: Sum(rhs),rhsMax =  -9.53332346398383E-08  9.09224734512777E+00
 cg2d: Sum(rhs),rhsMax =  -9.53879322196372E-08  9.08703847736888E+00
 cg2d: Sum(rhs),rhsMax =  -9.54423811094784E-08  9.08182972075513E+00
 cg2d: Sum(rhs),rhsMax =  -9.54974623823546E-08  9.07661692347198E+00
 cg2d: Sum(rhs),rhsMax =  -9.55527141854873E-08  9.07139547821490E+00
 cg2d: Sum(rhs),rhsMax =  -9.56078878289190E-08  9.06616045270155E+00
 cg2d: Sum(rhs),rhsMax =  -9.56632462134621E-08  9.06090673305150E+00
 cg2d: Sum(rhs),rhsMax =  -9.57190593453561E-08  9.05562917574046E+00
 cg2d: Sum(rhs),rhsMax =  -9.57753982788745E-08  9.05032276301453E+00
 cg2d: Sum(rhs),rhsMax =  -9.58323127520089E-08  9.04498274779792E+00
 cg2d: Sum(rhs),rhsMax =  -9.58890566948867E-08  9.03960479010611E+00
 cg2d: Sum(rhs),rhsMax =  -9.59469090844323E-08  9.03418508103277E+00
 cg2d: Sum(rhs),rhsMax =  -9.60046975251316E-08  9.02872044807494E+00
 cg2d: Sum(rhs),rhsMax =  -9.60634949365158E-08  9.02320843719522E+00
 cg2d: Sum(rhs),rhsMax =  -9.61234505325592E-08  9.01764736350553E+00
 cg2d: Sum(rhs),rhsMax =  -9.61829158541150E-08  9.01203632711249E+00
 cg2d: Sum(rhs),rhsMax =  -9.62436175200310E-08  9.00637519234014E+00
 cg2d: Sum(rhs),rhsMax =  -9.63047241953063E-08  9.00066454100738E+00
 cg2d: Sum(rhs),rhsMax =  -9.63663566722062E-08  8.99490560644289E+00
 cg2d: Sum(rhs),rhsMax =  -9.64286215321408E-08  8.98910019830229E+00
 cg2d: Sum(rhs),rhsMax =  -9.64914832479735E-08  8.98325060608421E+00
 cg2d: Sum(rhs),rhsMax =  -9.65549631359863E-08  8.97735949860674E+00
 cg2d: Sum(rhs),rhsMax =  -9.66191180395981E-08  8.97142982445055E+00
 cg2d: Sum(rhs),rhsMax =  -9.66832942594920E-08  8.96546471599943E+00
 cg2d: Sum(rhs),rhsMax =  -9.67482520763951E-08  8.95946740124540E+00
 cg2d: Sum(rhs),rhsMax =  -9.68132098932983E-08  8.95344112713886E+00
 cg2d: Sum(rhs),rhsMax =  -9.68790274669118E-08  8.94738909112794E+00
 cg2d: Sum(rhs),rhsMax =  -9.69447810916790E-08  8.94131438207753E+00
 cg2d: Sum(rhs),rhsMax =  -9.70111884157632E-08  8.93521991327319E+00
 cg2d: Sum(rhs),rhsMax =  -9.70773115227530E-08  8.92910833888471E+00
 cg2d: Sum(rhs),rhsMax =  -9.71445075492738E-08  8.92298199747039E+00
 cg2d: Sum(rhs),rhsMax =  -9.72113554098541E-08  8.91684290726808E+00
 cg2d: Sum(rhs),rhsMax =  -9.72787574937684E-08  8.91069264633776E+00
 cg2d: Sum(rhs),rhsMax =  -9.73459535202892E-08  8.90453228797114E+00
 cg2d: Sum(rhs),rhsMax =  -9.74135971887335E-08  8.89836249714105E+00
 cg2d: Sum(rhs),rhsMax =  -9.74817027099562E-08  8.89218368115518E+00
 cg2d: Sum(rhs),rhsMax =  -9.75496519117769E-08  8.88599608996445E+00
 cg2d: Sum(rhs),rhsMax =  -9.76179350686834E-08  8.87979980032782E+00
 cg2d: Sum(rhs),rhsMax =  -9.76860476953334E-08  8.87359466021019E+00
 cg2d: Sum(rhs),rhsMax =  -9.77549490244201E-08  8.86737992136571E+00
 cg2d: Sum(rhs),rhsMax =  -9.78237792992331E-08  8.86115449881272E+00
 cg2d: Sum(rhs),rhsMax =  -9.78925882577641E-08  8.85491714939279E+00
 cg2d: Sum(rhs),rhsMax =  -9.79620651264668E-08  8.84866650814923E+00
 cg2d: Sum(rhs),rhsMax =  -9.80318830556826E-08  8.84239908862083E+00
 cg2d: Sum(rhs),rhsMax =  -9.81016583523342E-08  8.83611205511795E+00
 EXTERNAL_FIELDS_LOAD, it=   3600510 : Reading new data, i0,i1=    9   10 (prev=    8    9 )
 DIC_FIELDS_LOAD, it=   3600510 : Reading new data, i0,i1=    9   10 (prev=    8    9 )
 cg2d: Sum(rhs),rhsMax =  -9.81721868242857E-08  8.82980306034887E+00
 cg2d: Sum(rhs),rhsMax =  -9.82427721396562E-08  8.82347164349139E+00
 cg2d: Sum(rhs),rhsMax =  -9.83135990395567E-08  8.81711735596894E+00
 cg2d: Sum(rhs),rhsMax =  -9.83851720093298E-08  8.81074020360017E+00
 cg2d: Sum(rhs),rhsMax =  -9.84564962891454E-08  8.80434063629974E+00
 cg2d: Sum(rhs),rhsMax =  -9.85286376931072E-08  8.79791959804717E+00
 cg2d: Sum(rhs),rhsMax =  -9.86011414738641E-08  8.79147850051498E+00
 cg2d: Sum(rhs),rhsMax =  -9.86734960406466E-08  8.78501923806664E+00
 cg2d: Sum(rhs),rhsMax =  -9.87464900958912E-08  8.77854412431977E+00
 cg2d: Sum(rhs),rhsMax =  -9.88197470519481E-08  8.77205585109022E+00
 cg2d: Sum(rhs),rhsMax =  -9.88934729662105E-08  8.76555740298602E+00
 cg2d: Sum(rhs),rhsMax =  -9.89669146633787E-08  8.75905198910442E+00
 cg2d: Sum(rhs),rhsMax =  -9.90407258427695E-08  8.75254295465281E+00
 cg2d: Sum(rhs),rhsMax =  -9.91145014950234E-08  8.74603368964057E+00
 cg2d: Sum(rhs),rhsMax =  -9.91886466295000E-08  8.73952755244439E+00
 cg2d: Sum(rhs),rhsMax =  -9.92623157003436E-08  8.73302782624689E+00
 cg2d: Sum(rhs),rhsMax =  -9.93363400425551E-08  8.72653766294564E+00
 cg2d: Sum(rhs),rhsMax =  -9.94104141227581E-08  8.72006002219781E+00
 cg2d: Sum(rhs),rhsMax =  -9.94844668866790E-08  8.71359759621992E+00
 cg2d: Sum(rhs),rhsMax =  -9.95583775420528E-08  8.70715278372291E+00
 cg2d: Sum(rhs),rhsMax =  -9.96322597757171E-08  8.70072771032166E+00
 cg2d: Sum(rhs),rhsMax =  -9.97059714791249E-08  8.69432422374462E+00
 cg2d: Sum(rhs),rhsMax =  -9.97792923840279E-08  8.68794392220557E+00
 cg2d: Sum(rhs),rhsMax =  -9.98527127649140E-08  8.68159287495532E+00
 cg2d: Sum(rhs),rhsMax =  -9.99256144496030E-08  8.67527594836007E+00
 cg2d: Sum(rhs),rhsMax =  -9.99983740257449E-08  8.66899648662334E+00
 cg2d: Sum(rhs),rhsMax =  -1.00070764119664E-07  8.66275674813775E+00
 cg2d: Sum(rhs),rhsMax =  -1.00142791836788E-07  8.65655808426570E+00
 cg2d: Sum(rhs),rhsMax =  -1.00214123222031E-07  8.65040095427649E+00
 cg2d: Sum(rhs),rhsMax =  -1.00285419080137E-07  8.64428511771589E+00
 cg2d: Sum(rhs),rhsMax =  -1.00356203347474E-07  8.63820779072895E+00
 cg2d: Sum(rhs),rhsMax =  -1.00426881033400E-07  8.63216610266613E+00
 cg2d: Sum(rhs),rhsMax =  -1.00497182131676E-07  8.62615664857018E+00
 cg2d: Sum(rhs),rhsMax =  -1.00566929006618E-07  8.62017549344574E+00
 cg2d: Sum(rhs),rhsMax =  -1.00636839306389E-07  8.61421824973427E+00
 cg2d: Sum(rhs),rhsMax =  -1.00706515127058E-07  8.60828014305759E+00
 cg2d: Sum(rhs),rhsMax =  -1.00776318845419E-07  8.60235619466164E+00
 cg2d: Sum(rhs),rhsMax =  -1.00845916506387E-07  8.59644141396147E+00
 cg2d: Sum(rhs),rhsMax =  -1.00915485745645E-07  8.59053104903554E+00
 cg2d: Sum(rhs),rhsMax =  -1.00985261042297E-07  8.58462072248315E+00
 cg2d: Sum(rhs),rhsMax =  -1.01055491086299E-07  8.57870663714626E+00
 cg2d: Sum(rhs),rhsMax =  -1.01125422702353E-07  8.57278566865890E+00
 cg2d: Sum(rhs),rhsMax =  -1.01195716695202E-07  8.56685532083521E+00
 cg2d: Sum(rhs),rhsMax =  -1.01266216745444E-07  8.56091374139585E+00
 cg2d: Sum(rhs),rhsMax =  -1.01337192859319E-07  8.55495975914983E+00
 cg2d: Sum(rhs),rhsMax =  -1.01408346608878E-07  8.54899275863313E+00
 cg2d: Sum(rhs),rhsMax =  -1.01479535885574E-07  8.54301265247851E+00
 cg2d: Sum(rhs),rhsMax =  -1.01551435705005E-07  8.53701978569626E+00
 cg2d: Sum(rhs),rhsMax =  -1.01622724457684E-07  8.53101490472480E+00
 cg2d: Sum(rhs),rhsMax =  -1.01695292187287E-07  8.52499919193590E+00
 cg2d: Sum(rhs),rhsMax =  -1.01767554383514E-07  8.51897431341724E+00
 cg2d: Sum(rhs),rhsMax =  -1.01840242905382E-07  8.51294235247767E+00
 cg2d: Sum(rhs),rhsMax =  -1.01912846162122E-07  8.50690569200869E+00
 cg2d: Sum(rhs),rhsMax =  -1.01985413891725E-07  8.50087005576702E+00
 cg2d: Sum(rhs),rhsMax =  -1.02058450579534E-07  8.49484015017416E+00
 cg2d: Sum(rhs),rhsMax =  -1.02131188839394E-07  8.48882063673028E+00
 cg2d: Sum(rhs),rhsMax =  -1.02203856044980E-07  8.48281607441673E+00
 cg2d: Sum(rhs),rhsMax =  -1.02276672464541E-07  8.47683086082370E+00
 cg2d: Sum(rhs),rhsMax =  -1.02349595465512E-07  8.47086915096995E+00
 cg2d: Sum(rhs),rhsMax =  -1.02421360281824E-07  8.46493476809303E+00
 EXTERNAL_FIELDS_LOAD, it=   3600570 : Reading new data, i0,i1=   10   11 (prev=    9   10 )
 DIC_FIELDS_LOAD, it=   3600570 : Reading new data, i0,i1=   10   11 (prev=    9   10 )
 cg2d: Sum(rhs),rhsMax =  -1.02493515896640E-07  8.45903109783263E+00
 cg2d: Sum(rhs),rhsMax =  -1.02564975179575E-07  8.45319648993583E+00
 cg2d: Sum(rhs),rhsMax =  -1.02634501786270E-07  8.44745634270964E+00
 cg2d: Sum(rhs),rhsMax =  -1.02703893389844E-07  8.44183524325516E+00
 cg2d: Sum(rhs),rhsMax =  -1.02770819410125E-07  8.43635626330932E+00
 cg2d: Sum(rhs),rhsMax =  -1.02836231974379E-07  8.43104036727980E+00
 cg2d: Sum(rhs),rhsMax =  -1.02899214482477E-07  8.42590597581903E+00
 cg2d: Sum(rhs),rhsMax =  -1.02960150627496E-07  8.42096861540595E+00
 cg2d: Sum(rhs),rhsMax =  -1.03018727770632E-07  8.41624063283881E+00
 cg2d: Sum(rhs),rhsMax =  -1.03074462742825E-07  8.41173099284368E+00
 cg2d: Sum(rhs),rhsMax =  -1.03127582917750E-07  8.40744522364360E+00
 cg2d: Sum(rhs),rhsMax =  -1.03177704602331E-07  8.40338548638234E+00
 cg2d: Sum(rhs),rhsMax =  -1.03225289649345E-07  8.39955071057647E+00
 cg2d: Sum(rhs),rhsMax =  -1.03270444640202E-07  8.39593686353065E+00
 cg2d: Sum(rhs),rhsMax =  -1.03312800092681E-07  8.39253726007720E+00
 cg2d: Sum(rhs),rhsMax =  -1.03352554958747E-07  8.38934286490718E+00
 cg2d: Sum(rhs),rhsMax =  -1.03389886874083E-07  8.38634267692018E+00
 cg2d: Sum(rhs),rhsMax =  -1.03425186637196E-07  8.38352418466840E+00
 cg2d: Sum(rhs),rhsMax =  -1.03458575040349E-07  8.38087384792736E+00
 cg2d: Sum(rhs),rhsMax =  -1.03489654179612E-07  8.37837764295235E+00
 cg2d: Sum(rhs),rhsMax =  -1.03519347760539E-07  8.37602165023152E+00
 cg2d: Sum(rhs),rhsMax =  -1.03547364460610E-07  8.37379265495454E+00
 cg2d: Sum(rhs),rhsMax =  -1.03573896126363E-07  8.37167859305842E+00
 cg2d: Sum(rhs),rhsMax =  -1.03599155920620E-07  8.36966841617237E+00
 cg2d: Sum(rhs),rhsMax =  -1.03623357006200E-07  8.36775262363169E+00
 cg2d: Sum(rhs),rhsMax =  -1.03646584648232E-07  8.36592322530019E+00
 cg2d: Sum(rhs),rhsMax =  -1.03668426731929E-07  8.36417370361670E+00
 cg2d: Sum(rhs),rhsMax =  -1.03689806962848E-07  8.36249893566327E+00
 cg2d: Sum(rhs),rhsMax =  -1.03710164012227E-07  8.36089512198643E+00
 cg2d: Sum(rhs),rhsMax =  -1.03729064448999E-07  8.35935972193128E+00
 cg2d: Sum(rhs),rhsMax =  -1.03747986202052E-07  8.35789132052859E+00
 cg2d: Sum(rhs),rhsMax =  -1.03765373182796E-07  8.35648953984663E+00
 cg2d: Sum(rhs),rhsMax =  -1.03782369365035E-07  8.35515503666620E+00
 cg2d: Sum(rhs),rhsMax =  -1.03798733164240E-07  8.35388959337713E+00
 cg2d: Sum(rhs),rhsMax =  -1.03813491136862E-07  8.35269612989214E+00
 cg2d: Sum(rhs),rhsMax =  -1.03827638042731E-07  8.35157865319166E+00
 cg2d: Sum(rhs),rhsMax =  -1.03841280463257E-07  8.35054220321588E+00
 cg2d: Sum(rhs),rhsMax =  -1.03853331268056E-07  8.34959282244478E+00
 cg2d: Sum(rhs),rhsMax =  -1.03864024936229E-07  8.34873757212784E+00
 cg2d: Sum(rhs),rhsMax =  -1.03873794898846E-07  8.34798443944571E+00
 cg2d: Sum(rhs),rhsMax =  -1.03881951929452E-07  8.34734205444848E+00
 cg2d: Sum(rhs),rhsMax =  -1.03888730507151E-07  8.34681927427749E+00
 cg2d: Sum(rhs),rhsMax =  -1.03893782466002E-07  8.34642479662444E+00
 cg2d: Sum(rhs),rhsMax =  -1.03896695691219E-07  8.34616690162161E+00
 cg2d: Sum(rhs),rhsMax =  -1.03898251779810E-07  8.34605328416144E+00
 cg2d: Sum(rhs),rhsMax =  -1.03897747294468E-07  8.34609086201575E+00
 cg2d: Sum(rhs),rhsMax =  -1.03895416714295E-07  8.34628560159372E+00
 cg2d: Sum(rhs),rhsMax =  -1.03891132141598E-07  8.34664238294981E+00
 cg2d: Sum(rhs),rhsMax =  -1.03884730151549E-07  8.34716488141953E+00
 cg2d: Sum(rhs),rhsMax =  -1.03876232060429E-07  8.34785544920597E+00
 cg2d: Sum(rhs),rhsMax =  -1.03865339440290E-07  8.34871504733891E+00
 cg2d: Sum(rhs),rhsMax =  -1.03852393351644E-07  8.34974320296400E+00
 cg2d: Sum(rhs),rhsMax =  -1.03837578535604E-07  8.35093803633076E+00
 cg2d: Sum(rhs),rhsMax =  -1.03820866570459E-07  8.35229628921908E+00
 cg2d: Sum(rhs),rhsMax =  -1.03801575335183E-07  8.35381348895399E+00
 cg2d: Sum(rhs),rhsMax =  -1.03780770643880E-07  8.35548405560547E+00
 cg2d: Sum(rhs),rhsMax =  -1.03758168279455E-07  8.35730145035772E+00
 cg2d: Sum(rhs),rhsMax =  -1.03734052459004E-07  8.35925834161856E+00
 cg2d: Sum(rhs),rhsMax =  -1.03707641585515E-07  8.36134677020027E+00
 cg2d: Sum(rhs),rhsMax =  -1.03680264373907E-07  8.36355833544679E+00
 EXTERNAL_FIELDS_LOAD, it=   3600630 : Reading new data, i0,i1=   11   12 (prev=   10   11 )
 DIC_FIELDS_LOAD, it=   3600630 : Reading new data, i0,i1=   11   12 (prev=   10   11 )
 cg2d: Sum(rhs),rhsMax =  -1.03651167648877E-07  8.36588437297216E+00
 cg2d: Sum(rhs),rhsMax =  -1.03620983793462E-07  8.36829873825493E+00
 cg2d: Sum(rhs),rhsMax =  -1.03590167555012E-07  8.37078098256463E+00
 cg2d: Sum(rhs),rhsMax =  -1.03558832620365E-07  8.37331076990736E+00
 cg2d: Sum(rhs),rhsMax =  -1.03526986094948E-07  8.37586828475342E+00
 cg2d: Sum(rhs),rhsMax =  -1.03494969039275E-07  8.37843651347270E+00
 cg2d: Sum(rhs),rhsMax =  -1.03462959089029E-07  8.38100058596186E+00
 cg2d: Sum(rhs),rhsMax =  -1.03431759157502E-07  8.38354800119352E+00
 cg2d: Sum(rhs),rhsMax =  -1.03400431328282E-07  8.38606907281455E+00
 cg2d: Sum(rhs),rhsMax =  -1.03369536930131E-07  8.38855705740912E+00
 cg2d: Sum(rhs),rhsMax =  -1.03339182544460E-07  8.39100818777902E+00
 cg2d: Sum(rhs),rhsMax =  -1.03309091059600E-07  8.39342162927294E+00
 cg2d: Sum(rhs),rhsMax =  -1.03279326424399E-07  8.39579937673915E+00
 cg2d: Sum(rhs),rhsMax =  -1.03250158645096E-07  8.39814606298476E+00
 cg2d: Sum(rhs),rhsMax =  -1.03221587721691E-07  8.40046867037939E+00
 cg2d: Sum(rhs),rhsMax =  -1.03192640210636E-07  8.40277617859981E+00
 cg2d: Sum(rhs),rhsMax =  -1.03164317977189E-07  8.40507915533000E+00
 cg2d: Sum(rhs),rhsMax =  -1.03135583628955E-07  8.40738929078001E+00
 cg2d: Sum(rhs),rhsMax =  -1.03106465587643E-07  8.40971893982490E+00
 cg2d: Sum(rhs),rhsMax =  -1.03077603341717E-07  8.41208069021930E+00
 cg2d: Sum(rhs),rhsMax =  -1.03047760546815E-07  8.41448664736628E+00
 cg2d: Sum(rhs),rhsMax =  -1.03017328001442E-07  8.41694808963461E+00
 cg2d: Sum(rhs),rhsMax =  -1.02985850958248E-07  8.41947641344255E+00
 cg2d: Sum(rhs),rhsMax =  -1.02953762848301E-07  8.42209465677943E+00
 cg2d: Sum(rhs),rhsMax =  -1.02920779454507E-07  8.42481840011152E+00
 cg2d: Sum(rhs),rhsMax =  -1.02885756803062E-07  8.42766143831664E+00
 cg2d: Sum(rhs),rhsMax =  -1.02849760708068E-07  8.43063562227923E+00
 cg2d: Sum(rhs),rhsMax =  -1.02811505087175E-07  8.43375048923612E+00
 cg2d: Sum(rhs),rhsMax =  -1.02771743115682E-07  8.43701312183894E+00
 cg2d: Sum(rhs),rhsMax =  -1.02730268736195E-07  8.44042805498092E+00
 cg2d: Sum(rhs),rhsMax =  -1.02686364300553E-07  8.44399728026233E+00
 cg2d: Sum(rhs),rhsMax =  -1.02641237731405E-07  8.44772028674299E+00
 cg2d: Sum(rhs),rhsMax =  -1.02594057693750E-07  8.45159419183708E+00
 cg2d: Sum(rhs),rhsMax =  -1.02545079982974E-07  8.45561389463918E+00
 cg2d: Sum(rhs),rhsMax =  -1.02494418285914E-07  8.45977229544668E+00
 cg2d: Sum(rhs),rhsMax =  -1.02442626825905E-07  8.46406043486096E+00
 cg2d: Sum(rhs),rhsMax =  -1.02389186906748E-07  8.46846786249842E+00
 cg2d: Sum(rhs),rhsMax =  -1.02334411167249E-07  8.47298294092153E+00
 cg2d: Sum(rhs),rhsMax =  -1.02278569613645E-07  8.47759310010859E+00
 cg2d: Sum(rhs),rhsMax =  -1.02221783038203E-07  8.48228511495217E+00
 cg2d: Sum(rhs),rhsMax =  -1.02164435134000E-07  8.48704540520819E+00
 cg2d: Sum(rhs),rhsMax =  -1.02106639587873E-07  8.49186038102640E+00
 cg2d: Sum(rhs),rhsMax =  -1.02048161920720E-07  8.49671683330553E+00
 cg2d: Sum(rhs),rhsMax =  -1.01989222400789E-07  8.50160229731839E+00
 cg2d: Sum(rhs),rhsMax =  -1.01930119456028E-07  8.50650541756349E+00
 cg2d: Sum(rhs),rhsMax =  -1.01871734159431E-07  8.51141606286167E+00
 cg2d: Sum(rhs),rhsMax =  -1.01813114383731E-07  8.51632550458549E+00
 cg2d: Sum(rhs),rhsMax =  -1.01754352499484E-07  8.52122658728227E+00
 cg2d: Sum(rhs),rhsMax =  -1.01695938781177E-07  8.52611387363114E+00
 cg2d: Sum(rhs),rhsMax =  -1.01637908755947E-07  8.53098375482528E+00
 cg2d: Sum(rhs),rhsMax =  -1.01580091893538E-07  8.53583450654913E+00
 cg2d: Sum(rhs),rhsMax =  -1.01522516615660E-07  8.54066629803099E+00
 cg2d: Sum(rhs),rhsMax =  -1.01465325030858E-07  8.54548114840508E+00
 cg2d: Sum(rhs),rhsMax =  -1.01408510033707E-07  8.55028281355603E+00
 cg2d: Sum(rhs),rhsMax =  -1.01351844250530E-07  8.55507663782142E+00
 cg2d: Sum(rhs),rhsMax =  -1.01294901355686E-07  8.55986938569464E+00
 cg2d: Sum(rhs),rhsMax =  -1.01238242677937E-07  8.56466907941720E+00
 cg2d: Sum(rhs),rhsMax =  -1.01181711897880E-07  8.56948481849350E+00
 cg2d: Sum(rhs),rhsMax =  -1.01124427942523E-07  8.57432655386490E+00
 cg2d: Sum(rhs),rhsMax =  -1.01066994773191E-07  8.57920482306538E+00
 EXTERNAL_FIELDS_LOAD, it=   3600690 : Reading new data, i0,i1=   12    1 (prev=   11   12 )
 DIC_FIELDS_LOAD, it=   3600690 : Reading new data, i0,i1=   12    1 (prev=   11   12 )
 cg2d: Sum(rhs),rhsMax =  -1.01009099751082E-07  8.58413045456863E+00
 cg2d: Sum(rhs),rhsMax =  -1.00950970249869E-07  8.58908772075261E+00
 cg2d: Sum(rhs),rhsMax =  -1.00892201260194E-07  8.59407113784658E+00
 cg2d: Sum(rhs),rhsMax =  -1.00833979388426E-07  8.59907533504329E+00
 cg2d: Sum(rhs),rhsMax =  -1.00775366718153E-07  8.60409527812640E+00
 cg2d: Sum(rhs),rhsMax =  -1.00716533779632E-07  8.60912639608676E+00
 cg2d: Sum(rhs),rhsMax =  -1.00657807422522E-07  8.61416467727663E+00
 cg2d: Sum(rhs),rhsMax =  -1.00599194752249E-07  8.61920670304104E+00
 cg2d: Sum(rhs),rhsMax =  -1.00540219705181E-07  8.62424959025954E+00
 cg2d: Sum(rhs),rhsMax =  -1.00481713616318E-07  8.62929084710763E+00
 cg2d: Sum(rhs),rhsMax =  -1.00423278581729E-07  8.63432823431656E+00
 cg2d: Sum(rhs),rhsMax =  -1.00365085131671E-07  8.63935967110789E+00
 cg2d: Sum(rhs),rhsMax =  -1.00306984052168E-07  8.64438326330631E+00
 cg2d: Sum(rhs),rhsMax =  -1.00248698231553E-07  8.64939736363611E+00
 cg2d: Sum(rhs),rhsMax =  -1.00191144269957E-07  8.65440069908248E+00
 cg2d: Sum(rhs),rhsMax =  -1.00133568992078E-07  8.65939260929048E+00
 cg2d: Sum(rhs),rhsMax =  -1.00076100295610E-07  8.66437312037654E+00
 cg2d: Sum(rhs),rhsMax =  -1.00019036608501E-07  8.66934290835576E+00
 cg2d: Sum(rhs),rhsMax =  -9.99617597585711E-08  8.67430225124478E+00
 cg2d: Sum(rhs),rhsMax =  -9.99047102823170E-08  8.67925494682890E+00
 cg2d: Sum(rhs),rhsMax =  -9.98482363456787E-08  8.68420608713978E+00
 cg2d: Sum(rhs),rhsMax =  -9.97913716105359E-08  8.68916081980566E+00
 cg2d: Sum(rhs),rhsMax =  -9.97343434505638E-08  8.69412416784580E+00
 cg2d: Sum(rhs),rhsMax =  -9.96773295014464E-08  8.69910085245627E+00
 cg2d: Sum(rhs),rhsMax =  -9.96202871306195E-08  8.70409517445086E+00
 cg2d: Sum(rhs),rhsMax =  -9.95629250155616E-08  8.70911095741398E+00
 cg2d: Sum(rhs),rhsMax =  -9.95059110664442E-08  8.71415148969223E+00
 cg2d: Sum(rhs),rhsMax =  -9.94480160443345E-08  8.71921930590513E+00
 cg2d: Sum(rhs),rhsMax =  -9.93902702361993E-08  8.72431607432102E+00
 cg2d: Sum(rhs),rhsMax =  -9.93317215147727E-08  8.72944261226047E+00
 cg2d: Sum(rhs),rhsMax =  -9.92735280647139E-08  8.73459893266904E+00
 cg2d: Sum(rhs),rhsMax =  -9.92147448641845E-08  8.73978430818157E+00
 cg2d: Sum(rhs),rhsMax =  -9.91560966667748E-08  8.74499735837366E+00
 cg2d: Sum(rhs),rhsMax =  -9.90966526615011E-08  8.75023614706347E+00
 cg2d: Sum(rhs),rhsMax =  -9.90366970654577E-08  8.75549829188909E+00
 cg2d: Sum(rhs),rhsMax =  -9.89772743764661E-08  8.76078107848702E+00
 cg2d: Sum(rhs),rhsMax =  -9.89177024735000E-08  8.76608155580086E+00
 cg2d: Sum(rhs),rhsMax =  -9.88579742511320E-08  8.77139664107964E+00
 cg2d: Sum(rhs),rhsMax =  -9.87977060162848E-08  8.77672320795606E+00
 cg2d: Sum(rhs),rhsMax =  -9.87382264838743E-08  8.78205816635757E+00
(PID.TID 0000.0001) Did not write pickup because writePickupAtEnd = FALSE
 DIC_SURFFORCING_INIT, it=   3600000 : Reading new data, i0,i1=   12    1
 QQ: pCO2 approximation method
 QQ first guess pH 8.2869849781645275,  7.129213793781922,  34.1535348423009,  2.0282,  5.43799999999999991E-4,  8.08490416966378689E-3,  2.3086000000000002
(PID.TID 0000.0001) // =======================================================
(PID.TID 0000.0001) // Model current state
(PID.TID 0000.0001) // =======================================================
(PID.TID 0000.0001) 
 EXTERNAL_FIELDS_LOAD, it=   3600000 : Reading new data, i0,i1=   12    1 (prev=   12    0 )
 DIC_FIELDS_LOAD, it=   3600000 : Reading new data, i0,i1=   12    1 (prev=   12    0 )
 cg2d: Sum(rhs),rhsMax =  -9.92433868418630E-08  8.73439671821315E+00
 cg2d: Sum(rhs),rhsMax =  -9.91844260056496E-08  8.73957958587058E+00
 cg2d: Sum(rhs),rhsMax =  -9.91252449011881E-08  8.74478969091806E+00
 cg2d: Sum(rhs),rhsMax =  -9.90665185440776E-08  8.75002495477880E+00
 cg2d: Sum(rhs),rhsMax =  -9.90068542705558E-08  8.75528284057604E+00
 cg2d: Sum(rhs),rhsMax =  -9.89473534218632E-08  8.76056047500076E+00
 cg2d: Sum(rhs),rhsMax =  -9.88878241514612E-08  8.76585475900637E+00
 cg2d: Sum(rhs),rhsMax =  -9.88279893476829E-08  8.77116249138180E+00
 cg2d: Sum(rhs),rhsMax =  -9.87682469144602E-08  8.77648047471154E+00
 cg2d: Sum(rhs),rhsMax =  -9.87087602766223E-08  8.78180560756084E+00
 cg2d: Sum(rhs),rhsMax =  -9.86489112619893E-08  8.78713494778165E+00
 cg2d: Sum(rhs),rhsMax =  -9.85891404070571E-08  8.79246575399440E+00
 cg2d: Sum(rhs),rhsMax =  -9.85293340249882E-08  8.79779549299699E+00
 cg2d: Sum(rhs),rhsMax =  -9.84700747608258E-08  8.80312181092759E+00
 cg2d: Sum(rhs),rhsMax =  -9.84108581292276E-08  8.80844249631459E+00
 cg2d: Sum(rhs),rhsMax =  -9.83516486030567E-08  8.81375547068360E+00
 cg2d: Sum(rhs),rhsMax =  -9.82926522397065E-08  8.81905885446822E+00
 cg2d: Sum(rhs),rhsMax =  -9.82337553523394E-08  8.82435106608147E+00
 cg2d: Sum(rhs),rhsMax =  -9.81751568929212E-08  8.82963093738125E+00
 cg2d: Sum(rhs),rhsMax =  -9.81166650149135E-08  8.83489782452132E+00
 cg2d: Sum(rhs),rhsMax =  -9.80585213028462E-08  8.84015168145881E+00
 cg2d: Sum(rhs),rhsMax =  -9.80007470730015E-08  8.84539306572338E+00
 cg2d: Sum(rhs),rhsMax =  -9.79429586323022E-08  8.85062306296846E+00
 cg2d: Sum(rhs),rhsMax =  -9.78853904598509E-08  8.85584316140559E+00
 cg2d: Sum(rhs),rhsMax =  -9.78280425556477E-08  8.86105508303604E+00
 cg2d: Sum(rhs),rhsMax =  -9.77709291305473E-08  8.86626061391844E+00
 cg2d: Sum(rhs),rhsMax =  -9.77132472712583E-08  8.87146147123075E+00
 cg2d: Sum(rhs),rhsMax =  -9.76563327981239E-08  8.87665923110881E+00
 cg2d: Sum(rhs),rhsMax =  -9.75990843699037E-08  8.88185530584736E+00
 cg2d: Sum(rhs),rhsMax =  -9.75420704207863E-08  8.88705095973601E+00
 EXTERNAL_FIELDS_LOAD, it=   3600030 : Reading new data, i0,i1=    1    2 (prev=   12    1 )
 DIC_FIELDS_LOAD, it=   3600030 : Reading new data, i0,i1=    1    2 (prev=   12    1 )
 cg2d: Sum(rhs),rhsMax =  -9.74853406887632E-08  8.89224735691429E+00
 cg2d: Sum(rhs),rhsMax =  -9.74287814869967E-08  8.89742706375180E+00
 cg2d: Sum(rhs),rhsMax =  -9.73723857100595E-08  8.90258000132907E+00
 cg2d: Sum(rhs),rhsMax =  -9.73164659967551E-08  8.90769672951691E+00
 cg2d: Sum(rhs),rhsMax =  -9.72612284044772E-08  8.91276878246959E+00
 cg2d: Sum(rhs),rhsMax =  -9.72070637317302E-08  8.91778889429735E+00
 cg2d: Sum(rhs),rhsMax =  -9.71530482729577E-08  8.92275113682099E+00
 cg2d: Sum(rhs),rhsMax =  -9.70993241367069E-08  8.92765100404361E+00
 cg2d: Sum(rhs),rhsMax =  -9.70471916161841E-08  8.93248545016401E+00
 cg2d: Sum(rhs),rhsMax =  -9.69955280538670E-08  8.93725287491615E+00
 cg2d: Sum(rhs),rhsMax =  -9.69441273923621E-08  8.94195305183593E+00
 cg2d: Sum(rhs),rhsMax =  -9.68941833434656E-08  8.94658701582531E+00
 cg2d: Sum(rhs),rhsMax =  -9.68450208915783E-08  8.95115692214719E+00
 cg2d: Sum(rhs),rhsMax =  -9.67962705544778E-08  8.95566589123099E+00
 cg2d: Sum(rhs),rhsMax =  -9.67482165492584E-08  8.96011786358850E+00
 cg2d: Sum(rhs),rhsMax =  -9.67008020325011E-08  8.96451747891563E+00
 cg2d: Sum(rhs),rhsMax =  -9.66539346336504E-08  8.96886998187158E+00
 cg2d: Sum(rhs),rhsMax =  -9.66078843589457E-08  8.97318115409823E+00
 cg2d: Sum(rhs),rhsMax =  -9.65621254067628E-08  8.97745726495199E+00
 cg2d: Sum(rhs),rhsMax =  -9.65159685506478E-08  8.98170502198163E+00
 cg2d: Sum(rhs),rhsMax =  -9.64709272466280E-08  8.98593151889555E+00
 cg2d: Sum(rhs),rhsMax =  -9.64258006774799E-08  8.99014423145949E+00
 cg2d: Sum(rhs),rhsMax =  -9.63806954246138E-08  8.99435085408351E+00
 cg2d: Sum(rhs),rhsMax =  -9.63354978011921E-08  8.99855914272681E+00
 cg2d: Sum(rhs),rhsMax =  -9.62904493917449E-08  9.00277662786875E+00
 cg2d: Sum(rhs),rhsMax =  -9.62449746566563E-08  9.00700998220796E+00
 cg2d: Sum(rhs),rhsMax =  -9.61997557169525E-08  9.01126574761483E+00
 cg2d: Sum(rhs),rhsMax =  -9.61540180810516E-08  9.01555039729210E+00
 cg2d: Sum(rhs),rhsMax =  -9.61077120109621E-08  9.01986971435378E+00
 cg2d: Sum(rhs),rhsMax =  -9.60613775191632E-08  9.02422880815445E+00
 cg2d: Sum(rhs),rhsMax =  -9.60143182737738E-08  9.02863205182447E+00
 cg2d: Sum(rhs),rhsMax =  -9.59668398081703E-08  9.03308295193821E+00
 cg2d: Sum(rhs),rhsMax =  -9.59189492277801E-08  9.03758400719746E+00
 cg2d: Sum(rhs),rhsMax =  -9.58706323217484E-08  9.04213663854453E+00
 cg2d: Sum(rhs),rhsMax =  -9.58215622404168E-08  9.04674109185253E+00
 cg2d: Sum(rhs),rhsMax =  -9.57721724148541E-08  9.05139640217902E+00
 cg2d: Sum(rhs),rhsMax =  -9.57223775799321E-08  9.05610040614876E+00
 cg2d: Sum(rhs),rhsMax =  -9.56718224642827E-08  9.06084979109159E+00
 cg2d: Sum(rhs),rhsMax =  -9.56211039238042E-08  9.06564017672268E+00
 cg2d: Sum(rhs),rhsMax =  -9.55700798499493E-08  9.07046622792088E+00
 cg2d: Sum(rhs),rhsMax =  -9.55189918272481E-08  9.07532179655311E+00
 cg2d: Sum(rhs),rhsMax =  -9.54672145780933E-08  9.08020008054443E+00
 cg2d: Sum(rhs),rhsMax =  -9.54156860188959E-08  9.08509379067778E+00
 cg2d: Sum(rhs),rhsMax =  -9.53640864054250E-08  9.08999532389517E+00
 cg2d: Sum(rhs),rhsMax =  -9.53120391500306E-08  9.09489685062687E+00
 cg2d: Sum(rhs),rhsMax =  -9.52604963799786E-08  9.09979078670731E+00
 cg2d: Sum(rhs),rhsMax =  -9.52091738781746E-08  9.10466952325132E+00
 cg2d: Sum(rhs),rhsMax =  -9.51581995423112E-08  9.10952586151125E+00
 cg2d: Sum(rhs),rhsMax =  -9.51075378452515E-08  9.11435305322486E+00
 cg2d: Sum(rhs),rhsMax =  -9.50568974644739E-08  9.11914489544444E+00
 cg2d: Sum(rhs),rhsMax =  -9.50070173644235E-08  9.12389583482653E+00
 cg2d: Sum(rhs),rhsMax =  -9.49582670273230E-08  9.12860106773695E+00
 cg2d: Sum(rhs),rhsMax =  -9.49094669522310E-08  9.13325671324743E+00
 cg2d: Sum(rhs),rhsMax =  -9.48612637330370E-08  9.13785989332165E+00
 cg2d: Sum(rhs),rhsMax =  -9.48139060596986E-08  9.14240888612431E+00
 cg2d: Sum(rhs),rhsMax =  -9.47671381368309E-08  9.14690322805975E+00
 cg2d: Sum(rhs),rhsMax =  -9.47210025969980E-08  9.15134376400067E+00
 cg2d: Sum(rhs),rhsMax =  -9.46753857533622E-08  9.15573262291172E+00
 cg2d: Sum(rhs),rhsMax =  -9.46305078741716E-08  9.16007311317651E+00
 cg2d: Sum(rhs),rhsMax =  -9.45855020972886E-08  9.16436954661381E+00
 EXTERNAL_FIELDS_LOAD, it=   3600090 : Reading new data, i0,i1=    2    3 (prev=    1    2 )
 DIC_FIELDS_LOAD, it=   3600090 : Reading new data, i0,i1=    2    3 (prev=    1    2 )
 cg2d: Sum(rhs),rhsMax =  -9.45416047670733E-08  9.16862700792054E+00
 cg2d: Sum(rhs),rhsMax =  -9.44977784911316E-08  9.17286965792043E+00
 cg2d: Sum(rhs),rhsMax =  -9.44538882663437E-08  9.17711460232796E+00
 cg2d: Sum(rhs),rhsMax =  -9.44097777733077E-08  9.18137827264839E+00
 cg2d: Sum(rhs),rhsMax =  -9.43655606988614E-08  9.18567586102450E+00
 cg2d: Sum(rhs),rhsMax =  -9.43208533499273E-08  9.19002086507332E+00
 cg2d: Sum(rhs),rhsMax =  -9.42755065125311E-08  9.19442473147613E+00
 cg2d: Sum(rhs),rhsMax =  -9.42294988703907E-08  9.19889660310093E+00
 cg2d: Sum(rhs),rhsMax =  -9.41831217460276E-08  9.20344317156002E+00
 cg2d: Sum(rhs),rhsMax =  -9.41357711781166E-08  9.20806863385625E+00
 cg2d: Sum(rhs),rhsMax =  -9.40875679589226E-08  9.21277472508850E+00
 cg2d: Sum(rhs),rhsMax =  -9.40387323566938E-08  9.21756082935263E+00
 cg2d: Sum(rhs),rhsMax =  -9.39891506845925E-08  9.22242415169496E+00
 cg2d: Sum(rhs),rhsMax =  -9.39387589937724E-08  9.22735992735964E+00
 cg2d: Sum(rhs),rhsMax =  -9.38874578082505E-08  9.23236166048178E+00
 cg2d: Sum(rhs),rhsMax =  -9.38360713576003E-08  9.23742136926884E+00
 cg2d: Sum(rhs),rhsMax =  -9.37847204340869E-08  9.24252982829311E+00
 cg2d: Sum(rhs),rhsMax =  -9.37326518624104E-08  9.24767682825910E+00
 cg2d: Sum(rhs),rhsMax =  -9.36799651185538E-08  9.25285135651627E+00
 cg2d: Sum(rhs),rhsMax =  -9.36278468088858E-08  9.25804181556396E+00
 cg2d: Sum(rhs),rhsMax =  -9.35753803332773E-08  9.26323624437734E+00
 cg2d: Sum(rhs),rhsMax =  -9.35233543941649E-08  9.26842252954541E+00
 cg2d: Sum(rhs),rhsMax =  -9.34712076627875E-08  9.27358855590945E+00
 cg2d: Sum(rhs),rhsMax =  -9.34198851609835E-08  9.27872221865362E+00
 cg2d: Sum(rhs),rhsMax =  -9.33687331894362E-08  9.28381269175841E+00
 cg2d: Sum(rhs),rhsMax =  -9.33183130769066E-08  9.28884990364347E+00
 cg2d: Sum(rhs),rhsMax =  -9.32684542931383E-08  9.29382460831193E+00
 cg2d: Sum(rhs),rhsMax =  -9.32194410552256E-08  9.29872876125425E+00
 cg2d: Sum(rhs),rhsMax =  -9.31711383600486E-08  9.30355578941157E+00
 cg2d: Sum(rhs),rhsMax =  -9.31240364820951E-08  9.30830071441787E+00
 cg2d: Sum(rhs),rhsMax =  -9.30773893514925E-08  9.31296016039586E+00
 cg2d: Sum(rhs),rhsMax =  -9.30318719838397E-08  9.31753230345820E+00
 cg2d: Sum(rhs),rhsMax =  -9.29872783217434E-08  9.32201677457960E+00
 cg2d: Sum(rhs),rhsMax =  -9.29437931063148E-08  9.32641453687162E+00
 cg2d: Sum(rhs),rhsMax =  -9.29007910599466E-08  9.33072777407330E+00
 cg2d: Sum(rhs),rhsMax =  -9.28590253579387E-08  9.33495977832897E+00
 cg2d: Sum(rhs),rhsMax =  -9.28177001924269E-08  9.33911483571782E+00
 cg2d: Sum(rhs),rhsMax =  -9.27770358316593E-08  9.34319809772528E+00
 cg2d: Sum(rhs),rhsMax =  -9.27373591252945E-08  9.34721542637213E+00
 cg2d: Sum(rhs),rhsMax =  -9.26982295368362E-08  9.35117321728378E+00
 cg2d: Sum(rhs),rhsMax =  -9.26594978523099E-08  9.35507820898651E+00
 cg2d: Sum(rhs),rhsMax =  -9.26212777585533E-08  9.35893728101038E+00
 cg2d: Sum(rhs),rhsMax =  -9.25836900478316E-08  9.36275724876052E+00
 cg2d: Sum(rhs),rhsMax =  -9.25467347201447E-08  9.36654466497940E+00
 cg2d: Sum(rhs),rhsMax =  -9.25093388559617E-08  9.37030563739009E+00
 cg2d: Sum(rhs),rhsMax =  -9.24723693174201E-08  9.37404566529748E+00
 cg2d: Sum(rhs),rhsMax =  -9.24358261045199E-08  9.37776950669782E+00
 cg2d: Sum(rhs),rhsMax =  -9.23998015878169E-08  9.38148107939576E+00
 cg2d: Sum(rhs),rhsMax =  -9.23633649563271E-08  9.38518340080342E+00
 cg2d: Sum(rhs),rhsMax =  -9.23271628039402E-08  9.38887856431341E+00
 cg2d: Sum(rhs),rhsMax =  -9.22907545941598E-08  9.39256775253961E+00
 cg2d: Sum(rhs),rhsMax =  -9.22549361348501E-08  9.39625127829926E+00
 cg2d: Sum(rhs),rhsMax =  -9.22186487173349E-08  9.39992865313115E+00
 cg2d: Sum(rhs),rhsMax =  -9.21831713185384E-08  9.40359867110262E+00
 cg2d: Sum(rhs),rhsMax =  -9.21473457538013E-08  9.40725949891390E+00
 cg2d: Sum(rhs),rhsMax =  -9.21119038821416E-08  9.41090875978471E+00
 cg2d: Sum(rhs),rhsMax =  -9.20763412182168E-08  9.41454361858659E+00
 cg2d: Sum(rhs),rhsMax =  -9.20410343496769E-08  9.41816086827301E+00
 cg2d: Sum(rhs),rhsMax =  -9.20060685416502E-08  9.42175701532902E+00
 cg2d: Sum(rhs),rhsMax =  -9.19711879987517E-08  9.42532836100955E+00
 EXTERNAL_FIELDS_LOAD, it=   3600150 : Reading new data, i0,i1=    3    4 (prev=    2    3 )
 DIC_FIELDS_LOAD, it=   3600150 : Reading new data, i0,i1=    3    4 (prev=    2    3 )
 cg2d: Sum(rhs),rhsMax =  -9.19367622032041E-08  9.42887108055882E+00
 cg2d: Sum(rhs),rhsMax =  -9.19030327395376E-08  9.43235832256638E+00
 cg2d: Sum(rhs),rhsMax =  -9.18696727580937E-08  9.43577294710938E+00
 cg2d: Sum(rhs),rhsMax =  -9.18375349101552E-08  9.43909901719340E+00
 cg2d: Sum(rhs),rhsMax =  -9.18056457521743E-08  9.44232226351574E+00
 cg2d: Sum(rhs),rhsMax =  -9.17754618967592E-08  9.44543045713848E+00
 cg2d: Sum(rhs),rhsMax =  -9.17468696570722E-08  9.44841368652191E+00
 cg2d: Sum(rhs),rhsMax =  -9.17188671678559E-08  9.45126453300903E+00
 cg2d: Sum(rhs),rhsMax =  -9.16929749905648E-08  9.45397814472091E+00
 cg2d: Sum(rhs),rhsMax =  -9.16680278351123E-08  9.45655223330268E+00
 cg2d: Sum(rhs),rhsMax =  -9.16445941356869E-08  9.45898700078271E+00
 cg2d: Sum(rhs),rhsMax =  -9.16223754643397E-08  9.46128500172268E+00
 cg2d: Sum(rhs),rhsMax =  -9.16011231311131E-08  9.46345095767279E+00
 cg2d: Sum(rhs),rhsMax =  -9.15811568802383E-08  9.46549153513779E+00
 cg2d: Sum(rhs),rhsMax =  -9.15625619768434E-08  9.46741508859273E+00
 cg2d: Sum(rhs),rhsMax =  -9.15451252581079E-08  9.46923137659912E+00
 cg2d: Sum(rhs),rhsMax =  -9.15285980340741E-08  9.47095124324780E+00
 cg2d: Sum(rhs),rhsMax =  -9.15126108225195E-08  9.47258633929544E+00
 cg2d: Sum(rhs),rhsMax =  -9.14974762622478E-08  9.47414881667898E+00
 cg2d: Sum(rhs),rhsMax =  -9.14831588261222E-08  9.47565102854520E+00
 cg2d: Sum(rhs),rhsMax =  -9.14691185016636E-08  9.47710524161440E+00
 cg2d: Sum(rhs),rhsMax =  -9.14552913400257E-08  9.47852337330871E+00
 cg2d: Sum(rhs),rhsMax =  -9.14417910280463E-08  9.47991675839448E+00
 cg2d: Sum(rhs),rhsMax =  -9.14288023068366E-08  9.48129594936036E+00
 cg2d: Sum(rhs),rhsMax =  -9.14153162057119E-08  9.48267055268677E+00
 cg2d: Sum(rhs),rhsMax =  -9.14016951014673E-08  9.48404910672501E+00
 cg2d: Sum(rhs),rhsMax =  -9.13883866360266E-08  9.48543898881096E+00
 cg2d: Sum(rhs),rhsMax =  -9.13749147457565E-08  9.48684634838855E+00
 cg2d: Sum(rhs),rhsMax =  -9.13611231112554E-08  9.48827608016959E+00
 cg2d: Sum(rhs),rhsMax =  -9.13465854068818E-08  9.48973182637241E+00
 cg2d: Sum(rhs),rhsMax =  -9.13324456064402E-08  9.49121598932757E+00
 cg2d: Sum(rhs),rhsMax =  -9.13176805283911E-08  9.49272976482376E+00
 cg2d: Sum(rhs),rhsMax =  -9.13029793991882E-08  9.49427318407705E+00
 cg2d: Sum(rhs),rhsMax =  -9.12876600978052E-08  9.49584517202971E+00
 cg2d: Sum(rhs),rhsMax =  -9.12722768475760E-08  9.49744362566448E+00
 cg2d: Sum(rhs),rhsMax =  -9.12563962174318E-08  9.49906550905340E+00
 cg2d: Sum(rhs),rhsMax =  -9.12406292741252E-08  9.50070696299551E+00
 cg2d: Sum(rhs),rhsMax =  -9.12245567974423E-08  9.50236342680402E+00
 cg2d: Sum(rhs),rhsMax =  -9.12086122184519E-08  9.50402976802920E+00
 cg2d: Sum(rhs),rhsMax =  -9.11920636781360E-08  9.50570042893596E+00
 cg2d: Sum(rhs),rhsMax =  -9.11760835720088E-08  9.50736956748404E+00
 cg2d: Sum(rhs),rhsMax =  -9.11599897790438E-08  9.50903122489705E+00
 cg2d: Sum(rhs),rhsMax =  -9.11439812512072E-08  9.51067944299842E+00
 cg2d: Sum(rhs),rhsMax =  -9.11286619498242E-08  9.51230836255520E+00
 cg2d: Sum(rhs),rhsMax =  -9.11128452685261E-08  9.51391232343393E+00
 cg2d: Sum(rhs),rhsMax =  -9.10978172896648E-08  9.51548598638282E+00
 cg2d: Sum(rhs),rhsMax =  -9.10825903588375E-08  9.51702443978652E+00
 cg2d: Sum(rhs),rhsMax =  -9.10679744947629E-08  9.51852327194360E+00
 cg2d: Sum(rhs),rhsMax =  -9.10538062726118E-08  9.51997861079381E+00
 cg2d: Sum(rhs),rhsMax =  -9.10403272769145E-08  9.52138713289450E+00
 cg2d: Sum(rhs),rhsMax =  -9.10271680254482E-08  9.52274605554116E+00
 cg2d: Sum(rhs),rhsMax =  -9.10143498344951E-08  9.52405313717331E+00
 cg2d: Sum(rhs),rhsMax =  -9.10022919242692E-08  9.52530666028232E+00
 cg2d: Sum(rhs),rhsMax =  -9.09905324419924E-08  9.52650541109617E+00
 cg2d: Sum(rhs),rhsMax =  -9.09794692915966E-08  9.52764864727963E+00
 cg2d: Sum(rhs),rhsMax =  -9.09689816808168E-08  9.52873605079492E+00
 cg2d: Sum(rhs),rhsMax =  -9.09588422359775E-08  9.52976767849440E+00
 cg2d: Sum(rhs),rhsMax =  -9.09493280687457E-08  9.53074391639987E+00
 cg2d: Sum(rhs),rhsMax =  -9.09404391791213E-08  9.53166530103624E+00
 cg2d: Sum(rhs),rhsMax =  -9.09316284491979E-08  9.53253252588939E+00
 EXTERNAL_FIELDS_LOAD, it=   3600210 : Reading new data, i0,i1=    4    5 (prev=    3    4 )
 DIC_FIELDS_LOAD, it=   3600210 : Reading new data, i0,i1=    4    5 (prev=    3    4 )
 cg2d: Sum(rhs),rhsMax =  -9.09236845814121E-08  9.53334634295211E+00
 cg2d: Sum(rhs),rhsMax =  -9.09162238826866E-08  9.53412016630968E+00
 cg2d: Sum(rhs),rhsMax =  -9.09088555545168E-08  9.53486144691540E+00
 cg2d: Sum(rhs),rhsMax =  -9.09020556605356E-08  9.53557668814411E+00
 cg2d: Sum(rhs),rhsMax =  -9.08950781308704E-08  9.53626990934916E+00
 cg2d: Sum(rhs),rhsMax =  -9.08885269268467E-08  9.53694479201801E+00
 cg2d: Sum(rhs),rhsMax =  -9.08819686173956E-08  9.53760402798875E+00
 cg2d: Sum(rhs),rhsMax =  -9.08758792661502E-08  9.53824943192211E+00
 cg2d: Sum(rhs),rhsMax =  -9.08692001644340E-08  9.53888215688552E+00
 cg2d: Sum(rhs),rhsMax =  -9.08633310814366E-08  9.53950304357000E+00
 cg2d: Sum(rhs),rhsMax =  -9.08575117364308E-08  9.54011304176576E+00
 cg2d: Sum(rhs),rhsMax =  -9.08516142317239E-08  9.54071301635899E+00
 cg2d: Sum(rhs),rhsMax =  -9.08458943627011E-08  9.54130322912294E+00
 cg2d: Sum(rhs),rhsMax =  -9.08400252797037E-08  9.54188272003942E+00
 cg2d: Sum(rhs),rhsMax =  -9.08349306882883E-08  9.54244934290944E+00
 cg2d: Sum(rhs),rhsMax =  -9.08295305634965E-08  9.54299999628384E+00
 cg2d: Sum(rhs),rhsMax =  -9.08241872821236E-08  9.54353092308816E+00
 cg2d: Sum(rhs),rhsMax =  -9.08189861092978E-08  9.54403796863502E+00
 cg2d: Sum(rhs),rhsMax =  -9.08142894218145E-08  9.54451678452915E+00
 cg2d: Sum(rhs),rhsMax =  -9.08097916862971E-08  9.54496303374895E+00
 cg2d: Sum(rhs),rhsMax =  -9.08056705384297E-08  9.54537256688658E+00
 cg2d: Sum(rhs),rhsMax =  -9.08016417611179E-08  9.54574155534994E+00
 cg2d: Sum(rhs),rhsMax =  -9.07979256226099E-08  9.54606657177462E+00
 cg2d: Sum(rhs),rhsMax =  -9.07952681927782E-08  9.54634467959792E+00
 cg2d: Sum(rhs),rhsMax =  -9.07924189164078E-08  9.54657345840157E+00
 cg2d: Sum(rhs),rhsMax =  -9.07902162339269E-08  9.54675102924543E+00
 cg2d: Sum(rhs),rhsMax =  -9.07886743561903E-08  9.54687605379506E+00
 cg2d: Sum(rhs),rhsMax =  -9.07877648614885E-08  9.54694771403842E+00
 cg2d: Sum(rhs),rhsMax =  -9.07869193156330E-08  9.54696566951997E+00
 cg2d: Sum(rhs),rhsMax =  -9.07865995714019E-08  9.54692999068711E+00
 cg2d: Sum(rhs),rhsMax =  -9.07872106381546E-08  9.54684108541375E+00
 cg2d: Sum(rhs),rhsMax =  -9.07884682987969E-08  9.54669963264824E+00
 cg2d: Sum(rhs),rhsMax =  -9.07898467517043E-08  9.54650651972953E+00
 cg2d: Sum(rhs),rhsMax =  -9.07915449488428E-08  9.54626274758502E+00
 cg2d: Sum(rhs),rhsMax =  -9.07941455352557E-08  9.54596935750525E+00
 cg2d: Sum(rhs),rhsMax =  -9.07970800767544E-08  9.54562738075971E+00
 cg2d: Sum(rhs),rhsMax =  -9.08000501453898E-08  9.54523778248193E+00
 cg2d: Sum(rhs),rhsMax =  -9.08038089164620E-08  9.54480140259877E+00
 cg2d: Sum(rhs),rhsMax =  -9.08078732209106E-08  9.54431888382345E+00
 cg2d: Sum(rhs),rhsMax =  -9.08128896526250E-08  9.54379063440704E+00
 cg2d: Sum(rhs),rhsMax =  -9.08179274006216E-08  9.54321682610369E+00
 cg2d: Sum(rhs),rhsMax =  -9.08231072571652E-08  9.54259741627488E+00
 cg2d: Sum(rhs),rhsMax =  -9.08294239820862E-08  9.54193218180504E+00
 cg2d: Sum(rhs),rhsMax =  -9.08357407070071E-08  9.54122075566689E+00
 cg2d: Sum(rhs),rhsMax =  -9.08426116552619E-08  9.54046266149910E+00
 cg2d: Sum(rhs),rhsMax =  -9.08497668206110E-08  9.53965734943055E+00
 cg2d: Sum(rhs),rhsMax =  -9.08576467395505E-08  9.53880424419014E+00
 cg2d: Sum(rhs),rhsMax =  -9.08659032461401E-08  9.53790282192021E+00
 cg2d: Sum(rhs),rhsMax =  -9.08746713434994E-08  9.53695268180845E+00
 cg2d: Sum(rhs),rhsMax =  -9.08840078750472E-08  9.53595362230667E+00
 cg2d: Sum(rhs),rhsMax =  -9.08936215182621E-08  9.53490571447803E+00
 cg2d: Sum(rhs),rhsMax =  -9.09042654484438E-08  9.53380930168364E+00
 cg2d: Sum(rhs),rhsMax =  -9.09145470018302E-08  9.53266493640869E+00
 cg2d: Sum(rhs),rhsMax =  -9.09259227910297E-08  9.53147332889492E+00
 cg2d: Sum(rhs),rhsMax =  -9.09384141323244E-08  9.53023537646442E+00
 cg2d: Sum(rhs),rhsMax =  -9.09505217805417E-08  9.52895220993865E+00
 cg2d: Sum(rhs),rhsMax =  -9.09629278567081E-08  9.52762520262973E+00
 cg2d: Sum(rhs),rhsMax =  -9.09757815747980E-08  9.52625594300855E+00
 cg2d: Sum(rhs),rhsMax =  -9.09892747813501E-08  9.52484621149773E+00
 cg2d: Sum(rhs),rhsMax =  -9.10029882561503E-08  9.52339794221070E+00
 EXTERNAL_FIELDS_LOAD, it=   3600270 : Reading new data, i0,i1=    5    6 (prev=    4    5 )
 DIC_FIELDS_LOAD, it=   3600270 : Reading new data, i0,i1=    5    6 (prev=    4    5 )
 cg2d: Sum(rhs),rhsMax =  -9.10169930534721E-08  9.52191318167782E+00
 cg2d: Sum(rhs),rhsMax =  -9.10311257484864E-08  9.52041761022813E+00
 cg2d: Sum(rhs),rhsMax =  -9.10455213443129E-08  9.51892843351038E+00
 cg2d: Sum(rhs),rhsMax =  -9.10593485059508E-08  9.51746258399289E+00
 cg2d: Sum(rhs),rhsMax =  -9.10729625047679E-08  9.51603636817957E+00
 cg2d: Sum(rhs),rhsMax =  -9.10860507019606E-08  9.51466517931999E+00
 cg2d: Sum(rhs),rhsMax =  -9.10986344138109E-08  9.51336322967766E+00
 cg2d: Sum(rhs),rhsMax =  -9.11102233658312E-08  9.51214329321166E+00
 cg2d: Sum(rhs),rhsMax =  -9.11212367782355E-08  9.51101645114812E+00
 cg2d: Sum(rhs),rhsMax =  -9.11308219997409E-08  9.50999185515969E+00
 cg2d: Sum(rhs),rhsMax =  -9.11397606273567E-08  9.50907652378690E+00
 cg2d: Sum(rhs),rhsMax =  -9.11473847509114E-08  9.50827517814543E+00
 cg2d: Sum(rhs),rhsMax =  -9.11540354309182E-08  9.50759014752173E+00
 cg2d: Sum(rhs),rhsMax =  -9.11595421371203E-08  9.50702134377118E+00
 cg2d: Sum(rhs),rhsMax =  -9.11640682943471E-08  9.50656629011210E+00
 cg2d: Sum(rhs),rhsMax =  -9.11673012637948E-08  9.50622019182364E+00
 cg2d: Sum(rhs),rhsMax =  -9.11696744765322E-08  9.50597606771963E+00
 cg2d: Sum(rhs),rhsMax =  -9.11708539774736E-08  9.50582494250500E+00
 cg2d: Sum(rhs),rhsMax =  -9.11716497853376E-08  9.50575608648473E+00
 cg2d: Sum(rhs),rhsMax =  -9.11714224116622E-08  9.50575729587021E+00
 cg2d: Sum(rhs),rhsMax =  -9.11708468720462E-08  9.50581523373235E+00
 cg2d: Sum(rhs),rhsMax =  -9.11699018502077E-08  9.50591575069248E+00
 cg2d: Sum(rhs),rhsMax =  -9.11685589244371E-08  9.50604420974297E+00
 cg2d: Sum(rhs),rhsMax =  -9.11669744141363E-08  9.50618583284504E+00
 cg2d: Sum(rhs),rhsMax =  -9.11656883317846E-08  9.50632606101357E+00
 cg2d: Sum(rhs),rhsMax =  -9.11643525114414E-08  9.50645090757042E+00
 cg2d: Sum(rhs),rhsMax =  -9.11635567035773E-08  9.50654729113363E+00
 cg2d: Sum(rhs),rhsMax =  -9.11632938027651E-08  9.50660334354173E+00
 cg2d: Sum(rhs),rhsMax =  -9.11633009081925E-08  9.50660868062301E+00
 cg2d: Sum(rhs),rhsMax =  -9.11639332912273E-08  9.50655462562515E+00
 cg2d: Sum(rhs),rhsMax =  -9.11649706836215E-08  9.50643436311089E+00
 cg2d: Sum(rhs),rhsMax =  -9.11672302095212E-08  9.50624304674150E+00
 cg2d: Sum(rhs),rhsMax =  -9.11696460548228E-08  9.50597781905916E+00
 cg2d: Sum(rhs),rhsMax =  -9.11727440211507E-08  9.50563777710892E+00
 cg2d: Sum(rhs),rhsMax =  -9.11770854372662E-08  9.50522393135291E+00
 cg2d: Sum(rhs),rhsMax =  -9.11816186999204E-08  9.50473911463816E+00
 cg2d: Sum(rhs),rhsMax =  -9.11870614572763E-08  9.50418773930678E+00
 cg2d: Sum(rhs),rhsMax =  -9.11928168534359E-08  9.50357558691374E+00
 cg2d: Sum(rhs),rhsMax =  -9.11992827923314E-08  9.50290964447458E+00
 cg2d: Sum(rhs),rhsMax =  -9.12065729608003E-08  9.50219791542795E+00
 cg2d: Sum(rhs),rhsMax =  -9.12139270781154E-08  9.50144918276843E+00
 cg2d: Sum(rhs),rhsMax =  -9.12212811954305E-08  9.50067274580360E+00
 cg2d: Sum(rhs),rhsMax =  -9.12293955934729E-08  9.49987815929010E+00
 cg2d: Sum(rhs),rhsMax =  -9.12369131356172E-08  9.49907498366882E+00
 cg2d: Sum(rhs),rhsMax =  -9.12447788437021E-08  9.49827255755378E+00
 cg2d: Sum(rhs),rhsMax =  -9.12528008711888E-08  9.49747978836020E+00
 cg2d: Sum(rhs),rhsMax =  -9.12602686753416E-08  9.49670496341604E+00
 cg2d: Sum(rhs),rhsMax =  -9.12679780640246E-08  9.49595558374171E+00
 cg2d: Sum(rhs),rhsMax =  -9.12747850634332E-08  9.49523821505845E+00
 cg2d: Sum(rhs),rhsMax =  -9.12811941589098E-08  9.49455836839740E+00
 cg2d: Sum(rhs),rhsMax =  -9.12878306280618E-08  9.49392042323925E+00
 cg2d: Sum(rhs),rhsMax =  -9.12937139219139E-08  9.49332754785973E+00
 cg2d: Sum(rhs),rhsMax =  -9.12992632606802E-08  9.49278165465699E+00
 cg2d: Sum(rhs),rhsMax =  -9.13035833605136E-08  9.49228339433203E+00
 cg2d: Sum(rhs),rhsMax =  -9.13086424247922E-08  9.49183218209292E+00
 cg2d: Sum(rhs),rhsMax =  -9.13127422563775E-08  9.49142625728328E+00
 cg2d: Sum(rhs),rhsMax =  -9.13163518134752E-08  9.49106276286301E+00
 cg2d: Sum(rhs),rhsMax =  -9.13194782015125E-08  9.49073783789306E+00
 cg2d: Sum(rhs),rhsMax =  -9.13225406407037E-08  9.49044672400271E+00
 cg2d: Sum(rhs),rhsMax =  -9.13253046519458E-08  9.49018390323782E+00
 EXTERNAL_FIELDS_LOAD, it=   3600330 : Reading new data, i0,i1=    6    7 (prev=    5    6 )
 DIC_FIELDS_LOAD, it=   3600330 : Reading new data, i0,i1=    6    7 (prev=    5    6 )
 cg2d: Sum(rhs),rhsMax =  -9.13276210212643E-08  9.48994325700856E+00
 cg2d: Sum(rhs),rhsMax =  -9.13303352945150E-08  9.48970801758053E+00
 cg2d: Sum(rhs),rhsMax =  -9.13328221940901E-08  9.48946471682098E+00
 cg2d: Sum(rhs),rhsMax =  -9.13353943587936E-08  9.48919980375378E+00
 cg2d: Sum(rhs),rhsMax =  -9.13383644274290E-08  9.48889996251626E+00
 cg2d: Sum(rhs),rhsMax =  -9.13418460868343E-08  9.48855235316500E+00
 cg2d: Sum(rhs),rhsMax =  -9.13461093432488E-08  9.48814487205053E+00
 cg2d: Sum(rhs),rhsMax =  -9.13508344524416E-08  9.48766639266868E+00
 cg2d: Sum(rhs),rhsMax =  -9.13563624749258E-08  9.48710698236420E+00
 cg2d: Sum(rhs),rhsMax =  -9.13624518261713E-08  9.48645808347463E+00
 cg2d: Sum(rhs),rhsMax =  -9.13698130489138E-08  9.48571268422533E+00
 cg2d: Sum(rhs),rhsMax =  -9.13783111400335E-08  9.48486545850383E+00
 cg2d: Sum(rhs),rhsMax =  -9.13876760932908E-08  9.48391285858374E+00
 cg2d: Sum(rhs),rhsMax =  -9.13977800109933E-08  9.48285315351105E+00
 cg2d: Sum(rhs),rhsMax =  -9.14093334358768E-08  9.48168641391458E+00
 cg2d: Sum(rhs),rhsMax =  -9.14215760872139E-08  9.48041445516485E+00
 cg2d: Sum(rhs),rhsMax =  -9.14348703418000E-08  9.47904073781749E+00
 cg2d: Sum(rhs),rhsMax =  -9.14490314585237E-08  9.47757022510765E+00
 cg2d: Sum(rhs),rhsMax =  -9.14641802296501E-08  9.47600920384239E+00
 cg2d: Sum(rhs),rhsMax =  -9.14802384954783E-08  9.47436507523804E+00
 cg2d: Sum(rhs),rhsMax =  -9.14970428311790E-08  9.47264612546539E+00
 cg2d: Sum(rhs),rhsMax =  -9.15143658630768E-08  9.47086128598380E+00
 cg2d: Sum(rhs),rhsMax =  -9.15317244221114E-08  9.46901988541289E+00
 cg2d: Sum(rhs),rhsMax =  -9.15503548526431E-08  9.46713139755286E+00
 cg2d: Sum(rhs),rhsMax =  -9.15688005420634E-08  9.46520519129246E+00
 cg2d: Sum(rhs),rhsMax =  -9.15879354579374E-08  9.46325027783096E+00
 cg2d: Sum(rhs),rhsMax =  -9.16070561629567E-08  9.46127510172983E+00
 cg2d: Sum(rhs),rhsMax =  -9.16269016215665E-08  9.45928736176468E+00
 cg2d: Sum(rhs),rhsMax =  -9.16458375854745E-08  9.45729384446051E+00
 cg2d: Sum(rhs),rhsMax =  -9.16652354021608E-08  9.45530032221759E+00
 cg2d: Sum(rhs),rhsMax =  -9.16847469056847E-08  9.45331147339530E+00
 cg2d: Sum(rhs),rhsMax =  -9.17041660386531E-08  9.45133082537812E+00
 cg2d: Sum(rhs),rhsMax =  -9.17234714847837E-08  9.44936073119909E+00
 cg2d: Sum(rhs),rhsMax =  -9.17423008672813E-08  9.44740238220463E+00
 cg2d: Sum(rhs),rhsMax =  -9.17614002560185E-08  9.44545585645758E+00
 cg2d: Sum(rhs),rhsMax =  -9.17801870059520E-08  9.44352020252140E+00
 cg2d: Sum(rhs),rhsMax =  -9.17989737558855E-08  9.44159355733174E+00
 cg2d: Sum(rhs),rhsMax =  -9.18179097197935E-08  9.43967327626014E+00
 cg2d: Sum(rhs),rhsMax =  -9.18367177860091E-08  9.43775607395104E+00
 cg2d: Sum(rhs),rhsMax =  -9.18552629514124E-08  9.43583817490269E+00
 cg2d: Sum(rhs),rhsMax =  -9.18742912858761E-08  9.43391546318717E+00
 cg2d: Sum(rhs),rhsMax =  -9.18933977800407E-08  9.43198362529795E+00
 cg2d: Sum(rhs),rhsMax =  -9.19123053222393E-08  9.43003828806143E+00
 cg2d: Sum(rhs),rhsMax =  -9.19319091963189E-08  9.42807514245689E+00
 cg2d: Sum(rhs),rhsMax =  -9.19516196518089E-08  9.42609005034801E+00
 cg2d: Sum(rhs),rhsMax =  -9.19711453661876E-08  9.42407914155286E+00
 cg2d: Sum(rhs),rhsMax =  -9.19916374186869E-08  9.42203890101561E+00
 cg2d: Sum(rhs),rhsMax =  -9.20122005254598E-08  9.41996625280574E+00
 cg2d: Sum(rhs),rhsMax =  -9.20328773190704E-08  9.41785862954787E+00
 cg2d: Sum(rhs),rhsMax =  -9.20541722848611E-08  9.41571402403211E+00
 cg2d: Sum(rhs),rhsMax =  -9.20761920042423E-08  9.41353104362712E+00
 cg2d: Sum(rhs),rhsMax =  -9.20975224971698E-08  9.41130897700722E+00
 cg2d: Sum(rhs),rhsMax =  -9.21202243375774E-08  9.40904782014454E+00
 cg2d: Sum(rhs),rhsMax =  -9.21427556477283E-08  9.40674826682519E+00
 cg2d: Sum(rhs),rhsMax =  -9.21658624974953E-08  9.40441167656376E+00
 cg2d: Sum(rhs),rhsMax =  -9.21897651551262E-08  9.40204003109270E+00
 cg2d: Sum(rhs),rhsMax =  -9.22136393910478E-08  9.39963588692061E+00
 cg2d: Sum(rhs),rhsMax =  -9.22377765277815E-08  9.39720232327049E+00
 cg2d: Sum(rhs),rhsMax =  -9.22617147125493E-08  9.39474287623570E+00
 cg2d: Sum(rhs),rhsMax =  -9.22866476571471E-08  9.39226147078604E+00
 EXTERNAL_FIELDS_LOAD, it=   3600390 : Reading new data, i0,i1=    7    8 (prev=    6    7 )
 DIC_FIELDS_LOAD, it=   3600390 : Reading new data, i0,i1=    7    8 (prev=    6    7 )
 cg2d: Sum(rhs),rhsMax =  -9.23120353490958E-08  9.38976233427929E+00
 cg2d: Sum(rhs),rhsMax =  -9.23369185557021E-08  9.38724381347799E+00
 cg2d: Sum(rhs),rhsMax =  -9.23620930848301E-08  9.38470550458213E+00
 cg2d: Sum(rhs),rhsMax =  -9.23878431535741E-08  9.38214640732935E+00
 cg2d: Sum(rhs),rhsMax =  -9.24133303215058E-08  9.37956498127073E+00
 cg2d: Sum(rhs),rhsMax =  -9.24395564538827E-08  9.37695924403383E+00
 cg2d: Sum(rhs),rhsMax =  -9.24659673273709E-08  9.37432689628576E+00
 cg2d: Sum(rhs),rhsMax =  -9.24926268908166E-08  9.37166545130188E+00
 cg2d: Sum(rhs),rhsMax =  -9.25199330481519E-08  9.36897236493602E+00
 cg2d: Sum(rhs),rhsMax =  -9.25472107837777E-08  9.36624514198210E+00
 cg2d: Sum(rhs),rhsMax =  -9.25749148450450E-08  9.36348144222541E+00
 cg2d: Sum(rhs),rhsMax =  -9.26027894365689E-08  9.36067916467522E+00
 cg2d: Sum(rhs),rhsMax =  -9.26316801042049E-08  9.35783651518778E+00
 cg2d: Sum(rhs),rhsMax =  -9.26604357687211E-08  9.35495205473915E+00
 cg2d: Sum(rhs),rhsMax =  -9.26899872411013E-08  9.35202472862356E+00
 cg2d: Sum(rhs),rhsMax =  -9.27198087197212E-08  9.34905386050751E+00
 cg2d: Sum(rhs),rhsMax =  -9.27502270542391E-08  9.34603912446753E+00
 cg2d: Sum(rhs),rhsMax =  -9.27809580275607E-08  9.34298052032945E+00
 cg2d: Sum(rhs),rhsMax =  -9.28122148025068E-08  9.33987837125357E+00
 cg2d: Sum(rhs),rhsMax =  -9.28438836922396E-08  9.33673332003228E+00
 cg2d: Sum(rhs),rhsMax =  -9.28756591633828E-08  9.33354631509102E+00
 cg2d: Sum(rhs),rhsMax =  -9.29085999246126E-08  9.33031856217985E+00
 cg2d: Sum(rhs),rhsMax =  -9.29414056827227E-08  9.32705144157814E+00
 cg2d: Sum(rhs),rhsMax =  -9.29742824951063E-08  9.32374640924821E+00
 cg2d: Sum(rhs),rhsMax =  -9.30079835370634E-08  9.32040491207867E+00
 cg2d: Sum(rhs),rhsMax =  -9.30417982658582E-08  9.31702830536998E+00
 cg2d: Sum(rhs),rhsMax =  -9.30764798567907E-08  9.31361778906816E+00
 cg2d: Sum(rhs),rhsMax =  -9.31104011669959E-08  9.31017435680010E+00
 cg2d: Sum(rhs),rhsMax =  -9.31454593455783E-08  9.30669874783390E+00
 cg2d: Sum(rhs),rhsMax =  -9.31809367443748E-08  9.30319140183628E+00
 cg2d: Sum(rhs),rhsMax =  -9.32159238686836E-08  9.29965242032067E+00
 cg2d: Sum(rhs),rhsMax =  -9.32518702256857E-08  9.29608155387300E+00
 cg2d: Sum(rhs),rhsMax =  -9.32883352788849E-08  9.29247816276956E+00
 cg2d: Sum(rhs),rhsMax =  -9.33245232204172E-08  9.28884120452690E+00
 cg2d: Sum(rhs),rhsMax =  -9.33613577558390E-08  9.28516924951164E+00
 cg2d: Sum(rhs),rhsMax =  -9.33982562401070E-08  9.28146051649491E+00
 cg2d: Sum(rhs),rhsMax =  -9.34364479121541E-08  9.27771291851975E+00
 cg2d: Sum(rhs),rhsMax =  -9.34740143065937E-08  9.27392411497484E+00
 cg2d: Sum(rhs),rhsMax =  -9.35126251988549E-08  9.27009157616147E+00
 cg2d: Sum(rhs),rhsMax =  -9.35518329470142E-08  9.26621266064052E+00
 cg2d: Sum(rhs),rhsMax =  -9.35912964905583E-08  9.26228469753356E+00
 cg2d: Sum(rhs),rhsMax =  -9.36311082000429E-08  9.25830502540661E+00
 cg2d: Sum(rhs),rhsMax =  -9.36718080879473E-08  9.25427104022615E+00
 cg2d: Sum(rhs),rhsMax =  -9.37130835154676E-08  9.25018025806528E+00
 cg2d: Sum(rhs),rhsMax =  -9.37547639523473E-08  9.24603037476154E+00
 cg2d: Sum(rhs),rhsMax =  -9.37974888870485E-08  9.24181932462259E+00
 cg2d: Sum(rhs),rhsMax =  -9.38402919814507E-08  9.23754533703139E+00
 cg2d: Sum(rhs),rhsMax =  -9.38843172093584E-08  9.23320698439808E+00
 cg2d: Sum(rhs),rhsMax =  -9.39290814017113E-08  9.22880321317793E+00
 cg2d: Sum(rhs),rhsMax =  -9.39739734917566E-08  9.22433335164241E+00
 cg2d: Sum(rhs),rhsMax =  -9.40200521881707E-08  9.21979710173837E+00
 cg2d: Sum(rhs),rhsMax =  -9.40667135296280E-08  9.21519452384442E+00
 cg2d: Sum(rhs),rhsMax =  -9.41140712029664E-08  9.21052602027441E+00
 cg2d: Sum(rhs),rhsMax =  -9.41621181027585E-08  9.20579231856880E+00
 cg2d: Sum(rhs),rhsMax =  -9.42108115964402E-08  9.20099445172383E+00
 cg2d: Sum(rhs),rhsMax =  -9.42603506359774E-08  9.19613373409314E+00
 cg2d: Sum(rhs),rhsMax =  -9.43106570616692E-08  9.19121172891709E+00
 cg2d: Sum(rhs),rhsMax =  -9.43619582471911E-08  9.18623021276131E+00
 cg2d: Sum(rhs),rhsMax =  -9.44129254776271E-08  9.18119115032627E+00
 cg2d: Sum(rhs),rhsMax =  -9.44648874678933E-08  9.17609666859133E+00
 EXTERNAL_FIELDS_LOAD, it=   3600450 : Reading new data, i0,i1=    8    9 (prev=    7    8 )
 DIC_FIELDS_LOAD, it=   3600450 : Reading new data, i0,i1=    8    9 (prev=    7    8 )
 cg2d: Sum(rhs),rhsMax =  -9.45180929079470E-08  9.17094900539886E+00
 cg2d: Sum(rhs),rhsMax =  -9.45713196642828E-08  9.16576037761048E+00
 cg2d: Sum(rhs),rhsMax =  -9.46249869571147E-08  9.16053907873528E+00
 cg2d: Sum(rhs),rhsMax =  -9.46787679367844E-08  9.15529303788953E+00
 cg2d: Sum(rhs),rhsMax =  -9.47327123412833E-08  9.15002961005962E+00
 cg2d: Sum(rhs),rhsMax =  -9.47873814993727E-08  9.14475542293395E+00
 cg2d: Sum(rhs),rhsMax =  -9.48415888046839E-08  9.13947626776025E+00
 cg2d: Sum(rhs),rhsMax =  -9.48963148061921E-08  9.13419703804716E+00
 cg2d: Sum(rhs),rhsMax =  -9.49505718494947E-08  9.12892171232682E+00
 cg2d: Sum(rhs),rhsMax =  -9.50055820680973E-08  9.12365335338700E+00
 cg2d: Sum(rhs),rhsMax =  -9.50602441207593E-08  9.11839411243203E+00
 cg2d: Sum(rhs),rhsMax =  -9.51149274897034E-08  9.11314523538299E+00
 cg2d: Sum(rhs),rhsMax =  -9.51689713701853E-08  9.10790707134369E+00
 cg2d: Sum(rhs),rhsMax =  -9.52241663298992E-08  9.10267908920085E+00
 cg2d: Sum(rhs),rhsMax =  -9.52785583763216E-08  9.09745990818067E+00
 cg2d: Sum(rhs),rhsMax =  -9.53332346398383E-08  9.09224734512777E+00
 cg2d: Sum(rhs),rhsMax =  -9.53879322196372E-08  9.08703847736888E+00
 cg2d: Sum(rhs),rhsMax =  -9.54423811094784E-08  9.08182972075513E+00
 cg2d: Sum(rhs),rhsMax =  -9.54974623823546E-08  9.07661692347198E+00
 cg2d: Sum(rhs),rhsMax =  -9.55527141854873E-08  9.07139547821490E+00
 cg2d: Sum(rhs),rhsMax =  -9.56078878289190E-08  9.06616045270155E+00
 cg2d: Sum(rhs),rhsMax =  -9.56632462134621E-08  9.06090673305150E+00
 cg2d: Sum(rhs),rhsMax =  -9.57190593453561E-08  9.05562917574046E+00
 cg2d: Sum(rhs),rhsMax =  -9.57753982788745E-08  9.05032276301453E+00
 cg2d: Sum(rhs),rhsMax =  -9.58323127520089E-08  9.04498274779792E+00
 cg2d: Sum(rhs),rhsMax =  -9.58890566948867E-08  9.03960479010611E+00
 cg2d: Sum(rhs),rhsMax =  -9.59469090844323E-08  9.03418508103277E+00
 cg2d: Sum(rhs),rhsMax =  -9.60046975251316E-08  9.02872044807494E+00
 cg2d: Sum(rhs),rhsMax =  -9.60634949365158E-08  9.02320843719522E+00
 cg2d: Sum(rhs),rhsMax =  -9.61234505325592E-08  9.01764736350553E+00
 cg2d: Sum(rhs),rhsMax =  -9.61829158541150E-08  9.01203632711249E+00
 cg2d: Sum(rhs),rhsMax =  -9.62436175200310E-08  9.00637519234014E+00
 cg2d: Sum(rhs),rhsMax =  -9.63047241953063E-08  9.00066454100738E+00
 cg2d: Sum(rhs),rhsMax =  -9.63663566722062E-08  8.99490560644289E+00
 cg2d: Sum(rhs),rhsMax =  -9.64286215321408E-08  8.98910019830229E+00
 cg2d: Sum(rhs),rhsMax =  -9.64914832479735E-08  8.98325060608421E+00
 cg2d: Sum(rhs),rhsMax =  -9.65549631359863E-08  8.97735949860674E+00
 cg2d: Sum(rhs),rhsMax =  -9.66191180395981E-08  8.97142982445055E+00
 cg2d: Sum(rhs),rhsMax =  -9.66832942594920E-08  8.96546471599943E+00
 cg2d: Sum(rhs),rhsMax =  -9.67482520763951E-08  8.95946740124540E+00
 cg2d: Sum(rhs),rhsMax =  -9.68132098932983E-08  8.95344112713886E+00
 cg2d: Sum(rhs),rhsMax =  -9.68790274669118E-08  8.94738909112794E+00
 cg2d: Sum(rhs),rhsMax =  -9.69447810916790E-08  8.94131438207753E+00
 cg2d: Sum(rhs),rhsMax =  -9.70111884157632E-08  8.93521991327319E+00
 cg2d: Sum(rhs),rhsMax =  -9.70773115227530E-08  8.92910833888471E+00
 cg2d: Sum(rhs),rhsMax =  -9.71445075492738E-08  8.92298199747039E+00
 cg2d: Sum(rhs),rhsMax =  -9.72113554098541E-08  8.91684290726808E+00
 cg2d: Sum(rhs),rhsMax =  -9.72787574937684E-08  8.91069264633776E+00
 cg2d: Sum(rhs),rhsMax =  -9.73459535202892E-08  8.90453228797114E+00
 cg2d: Sum(rhs),rhsMax =  -9.74135971887335E-08  8.89836249714105E+00
 cg2d: Sum(rhs),rhsMax =  -9.74817027099562E-08  8.89218368115518E+00
 cg2d: Sum(rhs),rhsMax =  -9.75496519117769E-08  8.88599608996445E+00
 cg2d: Sum(rhs),rhsMax =  -9.76179350686834E-08  8.87979980032782E+00
 cg2d: Sum(rhs),rhsMax =  -9.76860476953334E-08  8.87359466021019E+00
 cg2d: Sum(rhs),rhsMax =  -9.77549490244201E-08  8.86737992136571E+00
 cg2d: Sum(rhs),rhsMax =  -9.78237792992331E-08  8.86115449881272E+00
 cg2d: Sum(rhs),rhsMax =  -9.78925882577641E-08  8.85491714939279E+00
 cg2d: Sum(rhs),rhsMax =  -9.79620651264668E-08  8.84866650814923E+00
 cg2d: Sum(rhs),rhsMax =  -9.80318830556826E-08  8.84239908862083E+00
 cg2d: Sum(rhs),rhsMax =  -9.81016583523342E-08  8.83611205511795E+00
 EXTERNAL_FIELDS_LOAD, it=   3600510 : Reading new data, i0,i1=    9   10 (prev=    8    9 )
 DIC_FIELDS_LOAD, it=   3600510 : Reading new data, i0,i1=    9   10 (prev=    8    9 )
 cg2d: Sum(rhs),rhsMax =  -9.81721868242857E-08  8.82980306034887E+00
 cg2d: Sum(rhs),rhsMax =  -9.82427721396562E-08  8.82347164349139E+00
 cg2d: Sum(rhs),rhsMax =  -9.83135990395567E-08  8.81711735596894E+00
 cg2d: Sum(rhs),rhsMax =  -9.83851720093298E-08  8.81074020360017E+00
 cg2d: Sum(rhs),rhsMax =  -9.84564962891454E-08  8.80434063629974E+00
 cg2d: Sum(rhs),rhsMax =  -9.85286376931072E-08  8.79791959804717E+00
 cg2d: Sum(rhs),rhsMax =  -9.86011414738641E-08  8.79147850051498E+00
 cg2d: Sum(rhs),rhsMax =  -9.86734960406466E-08  8.78501923806664E+00
 cg2d: Sum(rhs),rhsMax =  -9.87464900958912E-08  8.77854412431977E+00
 cg2d: Sum(rhs),rhsMax =  -9.88197470519481E-08  8.77205585109022E+00
 cg2d: Sum(rhs),rhsMax =  -9.88934729662105E-08  8.76555740298602E+00
 cg2d: Sum(rhs),rhsMax =  -9.89669146633787E-08  8.75905198910442E+00
 cg2d: Sum(rhs),rhsMax =  -9.90407258427695E-08  8.75254295465281E+00
 cg2d: Sum(rhs),rhsMax =  -9.91145014950234E-08  8.74603368964057E+00
 cg2d: Sum(rhs),rhsMax =  -9.91886466295000E-08  8.73952755244439E+00
 cg2d: Sum(rhs),rhsMax =  -9.92623157003436E-08  8.73302782624689E+00
 cg2d: Sum(rhs),rhsMax =  -9.93363400425551E-08  8.72653766294564E+00
 cg2d: Sum(rhs),rhsMax =  -9.94104141227581E-08  8.72006002219781E+00
 cg2d: Sum(rhs),rhsMax =  -9.94844668866790E-08  8.71359759621992E+00
 cg2d: Sum(rhs),rhsMax =  -9.95583775420528E-08  8.70715278372291E+00
 cg2d: Sum(rhs),rhsMax =  -9.96322597757171E-08  8.70072771032166E+00
 cg2d: Sum(rhs),rhsMax =  -9.97059714791249E-08  8.69432422374462E+00
 cg2d: Sum(rhs),rhsMax =  -9.97792923840279E-08  8.68794392220557E+00
 cg2d: Sum(rhs),rhsMax =  -9.98527127649140E-08  8.68159287495532E+00
 cg2d: Sum(rhs),rhsMax =  -9.99256144496030E-08  8.67527594836007E+00
 cg2d: Sum(rhs),rhsMax =  -9.99983740257449E-08  8.66899648662334E+00
 cg2d: Sum(rhs),rhsMax =  -1.00070764119664E-07  8.66275674813775E+00
 cg2d: Sum(rhs),rhsMax =  -1.00142791836788E-07  8.65655808426570E+00
 cg2d: Sum(rhs),rhsMax =  -1.00214123222031E-07  8.65040095427649E+00
 cg2d: Sum(rhs),rhsMax =  -1.00285419080137E-07  8.64428511771589E+00
 cg2d: Sum(rhs),rhsMax =  -1.00356203347474E-07  8.63820779072895E+00
 cg2d: Sum(rhs),rhsMax =  -1.00426881033400E-07  8.63216610266613E+00
 cg2d: Sum(rhs),rhsMax =  -1.00497182131676E-07  8.62615664857018E+00
 cg2d: Sum(rhs),rhsMax =  -1.00566929006618E-07  8.62017549344574E+00
 cg2d: Sum(rhs),rhsMax =  -1.00636839306389E-07  8.61421824973427E+00
 cg2d: Sum(rhs),rhsMax =  -1.00706515127058E-07  8.60828014305759E+00
 cg2d: Sum(rhs),rhsMax =  -1.00776318845419E-07  8.60235619466164E+00
 cg2d: Sum(rhs),rhsMax =  -1.00845916506387E-07  8.59644141396147E+00
 cg2d: Sum(rhs),rhsMax =  -1.00915485745645E-07  8.59053104903554E+00
 cg2d: Sum(rhs),rhsMax =  -1.00985261042297E-07  8.58462072248315E+00
 cg2d: Sum(rhs),rhsMax =  -1.01055491086299E-07  8.57870663714626E+00
 cg2d: Sum(rhs),rhsMax =  -1.01125422702353E-07  8.57278566865890E+00
 cg2d: Sum(rhs),rhsMax =  -1.01195716695202E-07  8.56685532083521E+00
 cg2d: Sum(rhs),rhsMax =  -1.01266216745444E-07  8.56091374139585E+00
 cg2d: Sum(rhs),rhsMax =  -1.01337192859319E-07  8.55495975914983E+00
 cg2d: Sum(rhs),rhsMax =  -1.01408346608878E-07  8.54899275863313E+00
 cg2d: Sum(rhs),rhsMax =  -1.01479535885574E-07  8.54301265247851E+00
 cg2d: Sum(rhs),rhsMax =  -1.01551435705005E-07  8.53701978569626E+00
 cg2d: Sum(rhs),rhsMax =  -1.01622724457684E-07  8.53101490472480E+00
 cg2d: Sum(rhs),rhsMax =  -1.01695292187287E-07  8.52499919193590E+00
 cg2d: Sum(rhs),rhsMax =  -1.01767554383514E-07  8.51897431341724E+00
 cg2d: Sum(rhs),rhsMax =  -1.01840242905382E-07  8.51294235247767E+00
 cg2d: Sum(rhs),rhsMax =  -1.01912846162122E-07  8.50690569200869E+00
 cg2d: Sum(rhs),rhsMax =  -1.01985413891725E-07  8.50087005576702E+00
 cg2d: Sum(rhs),rhsMax =  -1.02058450579534E-07  8.49484015017416E+00
 cg2d: Sum(rhs),rhsMax =  -1.02131188839394E-07  8.48882063673028E+00
 cg2d: Sum(rhs),rhsMax =  -1.02203856044980E-07  8.48281607441673E+00
 cg2d: Sum(rhs),rhsMax =  -1.02276672464541E-07  8.47683086082370E+00
 cg2d: Sum(rhs),rhsMax =  -1.02349595465512E-07  8.47086915096995E+00
 cg2d: Sum(rhs),rhsMax =  -1.02421360281824E-07  8.46493476809303E+00
 EXTERNAL_FIELDS_LOAD, it=   3600570 : Reading new data, i0,i1=   10   11 (prev=    9   10 )
 DIC_FIELDS_LOAD, it=   3600570 : Reading new data, i0,i1=   10   11 (prev=    9   10 )
 cg2d: Sum(rhs),rhsMax =  -1.02493515896640E-07  8.45903109783263E+00
 cg2d: Sum(rhs),rhsMax =  -1.02564975179575E-07  8.45319648993583E+00
 cg2d: Sum(rhs),rhsMax =  -1.02634501786270E-07  8.44745634270964E+00
 cg2d: Sum(rhs),rhsMax =  -1.02703893389844E-07  8.44183524325516E+00
 cg2d: Sum(rhs),rhsMax =  -1.02770819410125E-07  8.43635626330932E+00
 cg2d: Sum(rhs),rhsMax =  -1.02836231974379E-07  8.43104036727980E+00
 cg2d: Sum(rhs),rhsMax =  -1.02899214482477E-07  8.42590597581903E+00
 cg2d: Sum(rhs),rhsMax =  -1.02960150627496E-07  8.42096861540595E+00
 cg2d: Sum(rhs),rhsMax =  -1.03018727770632E-07  8.41624063283881E+00
 cg2d: Sum(rhs),rhsMax =  -1.03074462742825E-07  8.41173099284368E+00
 cg2d: Sum(rhs),rhsMax =  -1.03127582917750E-07  8.40744522364360E+00
 cg2d: Sum(rhs),rhsMax =  -1.03177704602331E-07  8.40338548638234E+00
 cg2d: Sum(rhs),rhsMax =  -1.03225289649345E-07  8.39955071057647E+00
 cg2d: Sum(rhs),rhsMax =  -1.03270444640202E-07  8.39593686353065E+00
 cg2d: Sum(rhs),rhsMax =  -1.03312800092681E-07  8.39253726007720E+00
 cg2d: Sum(rhs),rhsMax =  -1.03352554958747E-07  8.38934286490718E+00
 cg2d: Sum(rhs),rhsMax =  -1.03389886874083E-07  8.38634267692018E+00
 cg2d: Sum(rhs),rhsMax =  -1.03425186637196E-07  8.38352418466840E+00
 cg2d: Sum(rhs),rhsMax =  -1.03458575040349E-07  8.38087384792736E+00
 cg2d: Sum(rhs),rhsMax =  -1.03489654179612E-07  8.37837764295235E+00
 cg2d: Sum(rhs),rhsMax =  -1.03519347760539E-07  8.37602165023152E+00
 cg2d: Sum(rhs),rhsMax =  -1.03547364460610E-07  8.37379265495454E+00
 cg2d: Sum(rhs),rhsMax =  -1.03573896126363E-07  8.37167859305842E+00
 cg2d: Sum(rhs),rhsMax =  -1.03599155920620E-07  8.36966841617237E+00
 cg2d: Sum(rhs),rhsMax =  -1.03623357006200E-07  8.36775262363169E+00
 cg2d: Sum(rhs),rhsMax =  -1.03646584648232E-07  8.36592322530019E+00
 cg2d: Sum(rhs),rhsMax =  -1.03668426731929E-07  8.36417370361670E+00
 cg2d: Sum(rhs),rhsMax =  -1.03689806962848E-07  8.36249893566327E+00
 cg2d: Sum(rhs),rhsMax =  -1.03710164012227E-07  8.36089512198643E+00
 cg2d: Sum(rhs),rhsMax =  -1.03729064448999E-07  8.35935972193128E+00
 cg2d: Sum(rhs),rhsMax =  -1.03747986202052E-07  8.35789132052859E+00
 cg2d: Sum(rhs),rhsMax =  -1.03765373182796E-07  8.35648953984663E+00
 cg2d: Sum(rhs),rhsMax =  -1.03782369365035E-07  8.35515503666620E+00
 cg2d: Sum(rhs),rhsMax =  -1.03798733164240E-07  8.35388959337713E+00
 cg2d: Sum(rhs),rhsMax =  -1.03813491136862E-07  8.35269612989214E+00
 cg2d: Sum(rhs),rhsMax =  -1.03827638042731E-07  8.35157865319166E+00
 cg2d: Sum(rhs),rhsMax =  -1.03841280463257E-07  8.35054220321588E+00
 cg2d: Sum(rhs),rhsMax =  -1.03853331268056E-07  8.34959282244478E+00
 cg2d: Sum(rhs),rhsMax =  -1.03864024936229E-07  8.34873757212784E+00
 cg2d: Sum(rhs),rhsMax =  -1.03873794898846E-07  8.34798443944571E+00
 cg2d: Sum(rhs),rhsMax =  -1.03881951929452E-07  8.34734205444848E+00
 cg2d: Sum(rhs),rhsMax =  -1.03888730507151E-07  8.34681927427749E+00
 cg2d: Sum(rhs),rhsMax =  -1.03893782466002E-07  8.34642479662444E+00
 cg2d: Sum(rhs),rhsMax =  -1.03896695691219E-07  8.34616690162161E+00
 cg2d: Sum(rhs),rhsMax =  -1.03898251779810E-07  8.34605328416144E+00
 cg2d: Sum(rhs),rhsMax =  -1.03897747294468E-07  8.34609086201575E+00
 cg2d: Sum(rhs),rhsMax =  -1.03895416714295E-07  8.34628560159372E+00
 cg2d: Sum(rhs),rhsMax =  -1.03891132141598E-07  8.34664238294981E+00
 cg2d: Sum(rhs),rhsMax =  -1.03884730151549E-07  8.34716488141953E+00
 cg2d: Sum(rhs),rhsMax =  -1.03876232060429E-07  8.34785544920597E+00
 cg2d: Sum(rhs),rhsMax =  -1.03865339440290E-07  8.34871504733891E+00
 cg2d: Sum(rhs),rhsMax =  -1.03852393351644E-07  8.34974320296400E+00
 cg2d: Sum(rhs),rhsMax =  -1.03837578535604E-07  8.35093803633076E+00
 cg2d: Sum(rhs),rhsMax =  -1.03820866570459E-07  8.35229628921908E+00
 cg2d: Sum(rhs),rhsMax =  -1.03801575335183E-07  8.35381348895399E+00
 cg2d: Sum(rhs),rhsMax =  -1.03780770643880E-07  8.35548405560547E+00
 cg2d: Sum(rhs),rhsMax =  -1.03758168279455E-07  8.35730145035772E+00
 cg2d: Sum(rhs),rhsMax =  -1.03734052459004E-07  8.35925834161856E+00
 cg2d: Sum(rhs),rhsMax =  -1.03707641585515E-07  8.36134677020027E+00
 cg2d: Sum(rhs),rhsMax =  -1.03680264373907E-07  8.36355833544679E+00
 EXTERNAL_FIELDS_LOAD, it=   3600630 : Reading new data, i0,i1=   11   12 (prev=   10   11 )
 DIC_FIELDS_LOAD, it=   3600630 : Reading new data, i0,i1=   11   12 (prev=   10   11 )
 cg2d: Sum(rhs),rhsMax =  -1.03651167648877E-07  8.36588437297216E+00
 cg2d: Sum(rhs),rhsMax =  -1.03620983793462E-07  8.36829873825493E+00
 cg2d: Sum(rhs),rhsMax =  -1.03590167555012E-07  8.37078098256463E+00
 cg2d: Sum(rhs),rhsMax =  -1.03558832620365E-07  8.37331076990736E+00
 cg2d: Sum(rhs),rhsMax =  -1.03526986094948E-07  8.37586828475342E+00
 cg2d: Sum(rhs),rhsMax =  -1.03494969039275E-07  8.37843651347270E+00
 cg2d: Sum(rhs),rhsMax =  -1.03462959089029E-07  8.38100058596186E+00
 cg2d: Sum(rhs),rhsMax =  -1.03431759157502E-07  8.38354800119352E+00
 cg2d: Sum(rhs),rhsMax =  -1.03400431328282E-07  8.38606907281455E+00
 cg2d: Sum(rhs),rhsMax =  -1.03369536930131E-07  8.38855705740912E+00
 cg2d: Sum(rhs),rhsMax =  -1.03339182544460E-07  8.39100818777902E+00
 cg2d: Sum(rhs),rhsMax =  -1.03309091059600E-07  8.39342162927294E+00
 cg2d: Sum(rhs),rhsMax =  -1.03279326424399E-07  8.39579937673915E+00
 cg2d: Sum(rhs),rhsMax =  -1.03250158645096E-07  8.39814606298476E+00
 cg2d: Sum(rhs),rhsMax =  -1.03221587721691E-07  8.40046867037939E+00
 cg2d: Sum(rhs),rhsMax =  -1.03192640210636E-07  8.40277617859981E+00
 cg2d: Sum(rhs),rhsMax =  -1.03164317977189E-07  8.40507915533000E+00
 cg2d: Sum(rhs),rhsMax =  -1.03135583628955E-07  8.40738929078001E+00
 cg2d: Sum(rhs),rhsMax =  -1.03106465587643E-07  8.40971893982490E+00
 cg2d: Sum(rhs),rhsMax =  -1.03077603341717E-07  8.41208069021930E+00
 cg2d: Sum(rhs),rhsMax =  -1.03047760546815E-07  8.41448664736628E+00
 cg2d: Sum(rhs),rhsMax =  -1.03017328001442E-07  8.41694808963461E+00
 cg2d: Sum(rhs),rhsMax =  -1.02985850958248E-07  8.41947641344255E+00
 cg2d: Sum(rhs),rhsMax =  -1.02953762848301E-07  8.42209465677943E+00
 cg2d: Sum(rhs),rhsMax =  -1.02920779454507E-07  8.42481840011152E+00
 cg2d: Sum(rhs),rhsMax =  -1.02885756803062E-07  8.42766143831664E+00
 cg2d: Sum(rhs),rhsMax =  -1.02849760708068E-07  8.43063562227923E+00
 cg2d: Sum(rhs),rhsMax =  -1.02811505087175E-07  8.43375048923612E+00
 cg2d: Sum(rhs),rhsMax =  -1.02771743115682E-07  8.43701312183894E+00
 cg2d: Sum(rhs),rhsMax =  -1.02730268736195E-07  8.44042805498092E+00
 cg2d: Sum(rhs),rhsMax =  -1.02686364300553E-07  8.44399728026233E+00
 cg2d: Sum(rhs),rhsMax =  -1.02641237731405E-07  8.44772028674299E+00
 cg2d: Sum(rhs),rhsMax =  -1.02594057693750E-07  8.45159419183708E+00
 cg2d: Sum(rhs),rhsMax =  -1.02545079982974E-07  8.45561389463918E+00
 cg2d: Sum(rhs),rhsMax =  -1.02494418285914E-07  8.45977229544668E+00
 cg2d: Sum(rhs),rhsMax =  -1.02442626825905E-07  8.46406043486096E+00
 cg2d: Sum(rhs),rhsMax =  -1.02389186906748E-07  8.46846786249842E+00
 cg2d: Sum(rhs),rhsMax =  -1.02334411167249E-07  8.47298294092153E+00
 cg2d: Sum(rhs),rhsMax =  -1.02278569613645E-07  8.47759310010859E+00
 cg2d: Sum(rhs),rhsMax =  -1.02221783038203E-07  8.48228511495217E+00
 cg2d: Sum(rhs),rhsMax =  -1.02164435134000E-07  8.48704540520819E+00
 cg2d: Sum(rhs),rhsMax =  -1.02106639587873E-07  8.49186038102640E+00
 cg2d: Sum(rhs),rhsMax =  -1.02048161920720E-07  8.49671683330553E+00
 cg2d: Sum(rhs),rhsMax =  -1.01989222400789E-07  8.50160229731839E+00
 cg2d: Sum(rhs),rhsMax =  -1.01930119456028E-07  8.50650541756349E+00
 cg2d: Sum(rhs),rhsMax =  -1.01871734159431E-07  8.51141606286167E+00
 cg2d: Sum(rhs),rhsMax =  -1.01813114383731E-07  8.51632550458549E+00
 cg2d: Sum(rhs),rhsMax =  -1.01754352499484E-07  8.52122658728227E+00
 cg2d: Sum(rhs),rhsMax =  -1.01695938781177E-07  8.52611387363114E+00
 cg2d: Sum(rhs),rhsMax =  -1.01637908755947E-07  8.53098375482528E+00
 cg2d: Sum(rhs),rhsMax =  -1.01580091893538E-07  8.53583450654913E+00
 cg2d: Sum(rhs),rhsMax =  -1.01522516615660E-07  8.54066629803099E+00
 cg2d: Sum(rhs),rhsMax =  -1.01465325030858E-07  8.54548114840508E+00
 cg2d: Sum(rhs),rhsMax =  -1.01408510033707E-07  8.55028281355603E+00
 cg2d: Sum(rhs),rhsMax =  -1.01351844250530E-07  8.55507663782142E+00
 cg2d: Sum(rhs),rhsMax =  -1.01294901355686E-07  8.55986938569464E+00
 cg2d: Sum(rhs),rhsMax =  -1.01238242677937E-07  8.56466907941720E+00
 cg2d: Sum(rhs),rhsMax =  -1.01181711897880E-07  8.56948481849350E+00
 cg2d: Sum(rhs),rhsMax =  -1.01124427942523E-07  8.57432655386490E+00
 cg2d: Sum(rhs),rhsMax =  -1.01066994773191E-07  8.57920482306538E+00
 EXTERNAL_FIELDS_LOAD, it=   3600690 : Reading new data, i0,i1=   12    1 (prev=   11   12 )
 DIC_FIELDS_LOAD, it=   3600690 : Reading new data, i0,i1=   12    1 (prev=   11   12 )
 cg2d: Sum(rhs),rhsMax =  -1.01009099751082E-07  8.58413045456863E+00
 cg2d: Sum(rhs),rhsMax =  -1.00950970249869E-07  8.58908772075261E+00
 cg2d: Sum(rhs),rhsMax =  -1.00892201260194E-07  8.59407113784658E+00
 cg2d: Sum(rhs),rhsMax =  -1.00833979388426E-07  8.59907533504329E+00
 cg2d: Sum(rhs),rhsMax =  -1.00775366718153E-07  8.60409527812640E+00
 cg2d: Sum(rhs),rhsMax =  -1.00716533779632E-07  8.60912639608676E+00
 cg2d: Sum(rhs),rhsMax =  -1.00657807422522E-07  8.61416467727663E+00
 cg2d: Sum(rhs),rhsMax =  -1.00599194752249E-07  8.61920670304104E+00
 cg2d: Sum(rhs),rhsMax =  -1.00540219705181E-07  8.62424959025954E+00
 cg2d: Sum(rhs),rhsMax =  -1.00481713616318E-07  8.62929084710763E+00
 cg2d: Sum(rhs),rhsMax =  -1.00423278581729E-07  8.63432823431656E+00
 cg2d: Sum(rhs),rhsMax =  -1.00365085131671E-07  8.63935967110789E+00
 cg2d: Sum(rhs),rhsMax =  -1.00306984052168E-07  8.64438326330631E+00
 cg2d: Sum(rhs),rhsMax =  -1.00248698231553E-07  8.64939736363611E+00
 cg2d: Sum(rhs),rhsMax =  -1.00191144269957E-07  8.65440069908248E+00
 cg2d: Sum(rhs),rhsMax =  -1.00133568992078E-07  8.65939260929048E+00
 cg2d: Sum(rhs),rhsMax =  -1.00076100295610E-07  8.66437312037654E+00
 cg2d: Sum(rhs),rhsMax =  -1.00019036608501E-07  8.66934290835576E+00
 cg2d: Sum(rhs),rhsMax =  -9.99617597585711E-08  8.67430225124478E+00
 cg2d: Sum(rhs),rhsMax =  -9.99047102823170E-08  8.67925494682890E+00
 cg2d: Sum(rhs),rhsMax =  -9.98482363456787E-08  8.68420608713978E+00
 cg2d: Sum(rhs),rhsMax =  -9.97913716105359E-08  8.68916081980566E+00
 cg2d: Sum(rhs),rhsMax =  -9.97343434505638E-08  8.69412416784580E+00
 cg2d: Sum(rhs),rhsMax =  -9.96773295014464E-08  8.69910085245627E+00
 cg2d: Sum(rhs),rhsMax =  -9.96202871306195E-08  8.70409517445086E+00
 cg2d: Sum(rhs),rhsMax =  -9.95629250155616E-08  8.70911095741398E+00
 cg2d: Sum(rhs),rhsMax =  -9.95059110664442E-08  8.71415148969223E+00
 cg2d: Sum(rhs),rhsMax =  -9.94480160443345E-08  8.71921930590513E+00
 cg2d: Sum(rhs),rhsMax =  -9.93902702361993E-08  8.72431607432102E+00
 cg2d: Sum(rhs),rhsMax =  -9.93317215147727E-08  8.72944261226047E+00
 cg2d: Sum(rhs),rhsMax =  -9.92735280647139E-08  8.73459893266904E+00
 cg2d: Sum(rhs),rhsMax =  -9.92147448641845E-08  8.73978430818157E+00
 cg2d: Sum(rhs),rhsMax =  -9.91560966667748E-08  8.74499735837366E+00
 cg2d: Sum(rhs),rhsMax =  -9.90966526615011E-08  8.75023614706347E+00
 cg2d: Sum(rhs),rhsMax =  -9.90366970654577E-08  8.75549829188909E+00
 cg2d: Sum(rhs),rhsMax =  -9.89772743764661E-08  8.76078107848702E+00
 cg2d: Sum(rhs),rhsMax =  -9.89177024735000E-08  8.76608155580086E+00
 cg2d: Sum(rhs),rhsMax =  -9.88579742511320E-08  8.77139664107964E+00
 cg2d: Sum(rhs),rhsMax =  -9.87977060162848E-08  8.77672320795606E+00
 cg2d: Sum(rhs),rhsMax =  -9.87382264838743E-08  8.78205816635757E+00
(PID.TID 0000.0001) Did not write pickup because writePickupAtEnd = FALSE
 DIC_SURFFORCING_INIT, it=   3600000 : Reading new data, i0,i1=   12    1
 QQ: pCO2 approximation method
 QQ first guess pH 8.2869849781645275,  7.129213793781922,  34.1535348423009,  2.0282,  5.43799999999999991E-4,  8.08490416966378689E-3,  2.3086000000000002
(PID.TID 0000.0001) // =======================================================
(PID.TID 0000.0001) // Model current state
(PID.TID 0000.0001) // =======================================================
(PID.TID 0000.0001) 
 EXTERNAL_FIELDS_LOAD, it=   3600000 : Reading new data, i0,i1=   12    1 (prev=   12    0 )
 DIC_FIELDS_LOAD, it=   3600000 : Reading new data, i0,i1=   12    1 (prev=   12    0 )
 cg2d: Sum(rhs),rhsMax =  -9.92433868418630E-08  8.73439671821315E+00
 cg2d: Sum(rhs),rhsMax =  -9.91844260056496E-08  8.73957958587058E+00
 cg2d: Sum(rhs),rhsMax =  -9.91252449011881E-08  8.74478969091806E+00
 cg2d: Sum(rhs),rhsMax =  -9.90665185440776E-08  8.75002495477880E+00
 cg2d: Sum(rhs),rhsMax =  -9.90068542705558E-08  8.75528284057604E+00
 cg2d: Sum(rhs),rhsMax =  -9.89473534218632E-08  8.76056047500076E+00
 cg2d: Sum(rhs),rhsMax =  -9.88878241514612E-08  8.76585475900637E+00
 cg2d: Sum(rhs),rhsMax =  -9.88279893476829E-08  8.77116249138180E+00
 cg2d: Sum(rhs),rhsMax =  -9.87682469144602E-08  8.77648047471154E+00
 cg2d: Sum(rhs),rhsMax =  -9.87087602766223E-08  8.78180560756084E+00
 cg2d: Sum(rhs),rhsMax =  -9.86489112619893E-08  8.78713494778165E+00
 cg2d: Sum(rhs),rhsMax =  -9.85891404070571E-08  8.79246575399440E+00
 cg2d: Sum(rhs),rhsMax =  -9.85293340249882E-08  8.79779549299699E+00
 cg2d: Sum(rhs),rhsMax =  -9.84700747608258E-08  8.80312181092759E+00
 cg2d: Sum(rhs),rhsMax =  -9.84108581292276E-08  8.80844249631459E+00
 cg2d: Sum(rhs),rhsMax =  -9.83516486030567E-08  8.81375547068360E+00
 cg2d: Sum(rhs),rhsMax =  -9.82926522397065E-08  8.81905885446822E+00
 cg2d: Sum(rhs),rhsMax =  -9.82337553523394E-08  8.82435106608147E+00
 cg2d: Sum(rhs),rhsMax =  -9.81751568929212E-08  8.82963093738125E+00
 cg2d: Sum(rhs),rhsMax =  -9.81166650149135E-08  8.83489782452132E+00
 cg2d: Sum(rhs),rhsMax =  -9.80585213028462E-08  8.84015168145881E+00
 cg2d: Sum(rhs),rhsMax =  -9.80007470730015E-08  8.84539306572338E+00
 cg2d: Sum(rhs),rhsMax =  -9.79429586323022E-08  8.85062306296846E+00
 cg2d: Sum(rhs),rhsMax =  -9.78853904598509E-08  8.85584316140559E+00
 cg2d: Sum(rhs),rhsMax =  -9.78280425556477E-08  8.86105508303604E+00
 cg2d: Sum(rhs),rhsMax =  -9.77709291305473E-08  8.86626061391844E+00
 cg2d: Sum(rhs),rhsMax =  -9.77132472712583E-08  8.87146147123075E+00
 cg2d: Sum(rhs),rhsMax =  -9.76563327981239E-08  8.87665923110881E+00
 cg2d: Sum(rhs),rhsMax =  -9.75990843699037E-08  8.88185530584736E+00
 cg2d: Sum(rhs),rhsMax =  -9.75420704207863E-08  8.88705095973601E+00
 EXTERNAL_FIELDS_LOAD, it=   3600030 : Reading new data, i0,i1=    1    2 (prev=   12    1 )
 DIC_FIELDS_LOAD, it=   3600030 : Reading new data, i0,i1=    1    2 (prev=   12    1 )
 cg2d: Sum(rhs),rhsMax =  -9.74853406887632E-08  8.89224735691429E+00
 cg2d: Sum(rhs),rhsMax =  -9.74287814869967E-08  8.89742706375180E+00
 cg2d: Sum(rhs),rhsMax =  -9.73723857100595E-08  8.90258000132907E+00
 cg2d: Sum(rhs),rhsMax =  -9.73164659967551E-08  8.90769672951691E+00
 cg2d: Sum(rhs),rhsMax =  -9.72612284044772E-08  8.91276878246959E+00
 cg2d: Sum(rhs),rhsMax =  -9.72070637317302E-08  8.91778889429735E+00
 cg2d: Sum(rhs),rhsMax =  -9.71530482729577E-08  8.92275113682099E+00
 cg2d: Sum(rhs),rhsMax =  -9.70993241367069E-08  8.92765100404361E+00
 cg2d: Sum(rhs),rhsMax =  -9.70471916161841E-08  8.93248545016401E+00
 cg2d: Sum(rhs),rhsMax =  -9.69955280538670E-08  8.93725287491615E+00
 cg2d: Sum(rhs),rhsMax =  -9.69441273923621E-08  8.94195305183593E+00
 cg2d: Sum(rhs),rhsMax =  -9.68941833434656E-08  8.94658701582531E+00
 cg2d: Sum(rhs),rhsMax =  -9.68450208915783E-08  8.95115692214719E+00
 cg2d: Sum(rhs),rhsMax =  -9.67962705544778E-08  8.95566589123099E+00
 cg2d: Sum(rhs),rhsMax =  -9.67482165492584E-08  8.96011786358850E+00
 cg2d: Sum(rhs),rhsMax =  -9.67008020325011E-08  8.96451747891563E+00
 cg2d: Sum(rhs),rhsMax =  -9.66539346336504E-08  8.96886998187158E+00
 cg2d: Sum(rhs),rhsMax =  -9.66078843589457E-08  8.97318115409823E+00
 cg2d: Sum(rhs),rhsMax =  -9.65621254067628E-08  8.97745726495199E+00
 cg2d: Sum(rhs),rhsMax =  -9.65159685506478E-08  8.98170502198163E+00
 cg2d: Sum(rhs),rhsMax =  -9.64709272466280E-08  8.98593151889555E+00
 cg2d: Sum(rhs),rhsMax =  -9.64258006774799E-08  8.99014423145949E+00
 cg2d: Sum(rhs),rhsMax =  -9.63806954246138E-08  8.99435085408351E+00
 cg2d: Sum(rhs),rhsMax =  -9.63354978011921E-08  8.99855914272681E+00
 cg2d: Sum(rhs),rhsMax =  -9.62904493917449E-08  9.00277662786875E+00
 cg2d: Sum(rhs),rhsMax =  -9.62449746566563E-08  9.00700998220796E+00
 cg2d: Sum(rhs),rhsMax =  -9.61997557169525E-08  9.01126574761483E+00
 cg2d: Sum(rhs),rhsMax =  -9.61540180810516E-08  9.01555039729210E+00
 cg2d: Sum(rhs),rhsMax =  -9.61077120109621E-08  9.01986971435378E+00
 cg2d: Sum(rhs),rhsMax =  -9.60613775191632E-08  9.02422880815445E+00
 cg2d: Sum(rhs),rhsMax =  -9.60143182737738E-08  9.02863205182447E+00
 cg2d: Sum(rhs),rhsMax =  -9.59668398081703E-08  9.03308295193821E+00
 cg2d: Sum(rhs),rhsMax =  -9.59189492277801E-08  9.03758400719746E+00
 cg2d: Sum(rhs),rhsMax =  -9.58706323217484E-08  9.04213663854453E+00
 cg2d: Sum(rhs),rhsMax =  -9.58215622404168E-08  9.04674109185253E+00
 cg2d: Sum(rhs),rhsMax =  -9.57721724148541E-08  9.05139640217902E+00
 cg2d: Sum(rhs),rhsMax =  -9.57223775799321E-08  9.05610040614876E+00
 cg2d: Sum(rhs),rhsMax =  -9.56718224642827E-08  9.06084979109159E+00
 cg2d: Sum(rhs),rhsMax =  -9.56211039238042E-08  9.06564017672268E+00
 cg2d: Sum(rhs),rhsMax =  -9.55700798499493E-08  9.07046622792088E+00
 cg2d: Sum(rhs),rhsMax =  -9.55189918272481E-08  9.07532179655311E+00
 cg2d: Sum(rhs),rhsMax =  -9.54672145780933E-08  9.08020008054443E+00
 cg2d: Sum(rhs),rhsMax =  -9.54156860188959E-08  9.08509379067778E+00
 cg2d: Sum(rhs),rhsMax =  -9.53640864054250E-08  9.08999532389517E+00
 cg2d: Sum(rhs),rhsMax =  -9.53120391500306E-08  9.09489685062687E+00
 cg2d: Sum(rhs),rhsMax =  -9.52604963799786E-08  9.09979078670731E+00
 cg2d: Sum(rhs),rhsMax =  -9.52091738781746E-08  9.10466952325132E+00
 cg2d: Sum(rhs),rhsMax =  -9.51581995423112E-08  9.10952586151125E+00
 cg2d: Sum(rhs),rhsMax =  -9.51075378452515E-08  9.11435305322486E+00
 cg2d: Sum(rhs),rhsMax =  -9.50568974644739E-08  9.11914489544444E+00
 cg2d: Sum(rhs),rhsMax =  -9.50070173644235E-08  9.12389583482653E+00
 cg2d: Sum(rhs),rhsMax =  -9.49582670273230E-08  9.12860106773695E+00
 cg2d: Sum(rhs),rhsMax =  -9.49094669522310E-08  9.13325671324743E+00
 cg2d: Sum(rhs),rhsMax =  -9.48612637330370E-08  9.13785989332165E+00
 cg2d: Sum(rhs),rhsMax =  -9.48139060596986E-08  9.14240888612431E+00
 cg2d: Sum(rhs),rhsMax =  -9.47671381368309E-08  9.14690322805975E+00
 cg2d: Sum(rhs),rhsMax =  -9.47210025969980E-08  9.15134376400067E+00
 cg2d: Sum(rhs),rhsMax =  -9.46753857533622E-08  9.15573262291172E+00
 cg2d: Sum(rhs),rhsMax =  -9.46305078741716E-08  9.16007311317651E+00
 cg2d: Sum(rhs),rhsMax =  -9.45855020972886E-08  9.16436954661381E+00
 EXTERNAL_FIELDS_LOAD, it=   3600090 : Reading new data, i0,i1=    2    3 (prev=    1    2 )
 DIC_FIELDS_LOAD, it=   3600090 : Reading new data, i0,i1=    2    3 (prev=    1    2 )
 cg2d: Sum(rhs),rhsMax =  -9.45416047670733E-08  9.16862700792054E+00
 cg2d: Sum(rhs),rhsMax =  -9.44977784911316E-08  9.17286965792043E+00
 cg2d: Sum(rhs),rhsMax =  -9.44538882663437E-08  9.17711460232796E+00
 cg2d: Sum(rhs),rhsMax =  -9.44097777733077E-08  9.18137827264839E+00
 cg2d: Sum(rhs),rhsMax =  -9.43655606988614E-08  9.18567586102450E+00
 cg2d: Sum(rhs),rhsMax =  -9.43208533499273E-08  9.19002086507332E+00
 cg2d: Sum(rhs),rhsMax =  -9.42755065125311E-08  9.19442473147613E+00
 cg2d: Sum(rhs),rhsMax =  -9.42294988703907E-08  9.19889660310093E+00
 cg2d: Sum(rhs),rhsMax =  -9.41831217460276E-08  9.20344317156002E+00
 cg2d: Sum(rhs),rhsMax =  -9.41357711781166E-08  9.20806863385625E+00
 cg2d: Sum(rhs),rhsMax =  -9.40875679589226E-08  9.21277472508850E+00
 cg2d: Sum(rhs),rhsMax =  -9.40387323566938E-08  9.21756082935263E+00
 cg2d: Sum(rhs),rhsMax =  -9.39891506845925E-08  9.22242415169496E+00
 cg2d: Sum(rhs),rhsMax =  -9.39387589937724E-08  9.22735992735964E+00
 cg2d: Sum(rhs),rhsMax =  -9.38874578082505E-08  9.23236166048178E+00
 cg2d: Sum(rhs),rhsMax =  -9.38360713576003E-08  9.23742136926884E+00
 cg2d: Sum(rhs),rhsMax =  -9.37847204340869E-08  9.24252982829311E+00
 cg2d: Sum(rhs),rhsMax =  -9.37326518624104E-08  9.24767682825910E+00
 cg2d: Sum(rhs),rhsMax =  -9.36799651185538E-08  9.25285135651627E+00
 cg2d: Sum(rhs),rhsMax =  -9.36278468088858E-08  9.25804181556396E+00
 cg2d: Sum(rhs),rhsMax =  -9.35753803332773E-08  9.26323624437734E+00
 cg2d: Sum(rhs),rhsMax =  -9.35233543941649E-08  9.26842252954541E+00
 cg2d: Sum(rhs),rhsMax =  -9.34712076627875E-08  9.27358855590945E+00
 cg2d: Sum(rhs),rhsMax =  -9.34198851609835E-08  9.27872221865362E+00
 cg2d: Sum(rhs),rhsMax =  -9.33687331894362E-08  9.28381269175841E+00
 cg2d: Sum(rhs),rhsMax =  -9.33183130769066E-08  9.28884990364347E+00
 cg2d: Sum(rhs),rhsMax =  -9.32684542931383E-08  9.29382460831193E+00
 cg2d: Sum(rhs),rhsMax =  -9.32194410552256E-08  9.29872876125425E+00
 cg2d: Sum(rhs),rhsMax =  -9.31711383600486E-08  9.30355578941157E+00
 cg2d: Sum(rhs),rhsMax =  -9.31240364820951E-08  9.30830071441787E+00
 cg2d: Sum(rhs),rhsMax =  -9.30773893514925E-08  9.31296016039586E+00
 cg2d: Sum(rhs),rhsMax =  -9.30318719838397E-08  9.31753230345820E+00
 cg2d: Sum(rhs),rhsMax =  -9.29872783217434E-08  9.32201677457960E+00
 cg2d: Sum(rhs),rhsMax =  -9.29437931063148E-08  9.32641453687162E+00
 cg2d: Sum(rhs),rhsMax =  -9.29007910599466E-08  9.33072777407330E+00
 cg2d: Sum(rhs),rhsMax =  -9.28590253579387E-08  9.33495977832897E+00
 cg2d: Sum(rhs),rhsMax =  -9.28177001924269E-08  9.33911483571782E+00
 cg2d: Sum(rhs),rhsMax =  -9.27770358316593E-08  9.34319809772528E+00
 cg2d: Sum(rhs),rhsMax =  -9.27373591252945E-08  9.34721542637213E+00
 cg2d: Sum(rhs),rhsMax =  -9.26982295368362E-08  9.35117321728378E+00
 cg2d: Sum(rhs),rhsMax =  -9.26594978523099E-08  9.35507820898651E+00
 cg2d: Sum(rhs),rhsMax =  -9.26212777585533E-08  9.35893728101038E+00
 cg2d: Sum(rhs),rhsMax =  -9.25836900478316E-08  9.36275724876052E+00
 cg2d: Sum(rhs),rhsMax =  -9.25467347201447E-08  9.36654466497940E+00
 cg2d: Sum(rhs),rhsMax =  -9.25093388559617E-08  9.37030563739009E+00
 cg2d: Sum(rhs),rhsMax =  -9.24723693174201E-08  9.37404566529748E+00
 cg2d: Sum(rhs),rhsMax =  -9.24358261045199E-08  9.37776950669782E+00
 cg2d: Sum(rhs),rhsMax =  -9.23998015878169E-08  9.38148107939576E+00
 cg2d: Sum(rhs),rhsMax =  -9.23633649563271E-08  9.38518340080342E+00
 cg2d: Sum(rhs),rhsMax =  -9.23271628039402E-08  9.38887856431341E+00
 cg2d: Sum(rhs),rhsMax =  -9.22907545941598E-08  9.39256775253961E+00
 cg2d: Sum(rhs),rhsMax =  -9.22549361348501E-08  9.39625127829926E+00
 cg2d: Sum(rhs),rhsMax =  -9.22186487173349E-08  9.39992865313115E+00
 cg2d: Sum(rhs),rhsMax =  -9.21831713185384E-08  9.40359867110262E+00
 cg2d: Sum(rhs),rhsMax =  -9.21473457538013E-08  9.40725949891390E+00
 cg2d: Sum(rhs),rhsMax =  -9.21119038821416E-08  9.41090875978471E+00
 cg2d: Sum(rhs),rhsMax =  -9.20763412182168E-08  9.41454361858659E+00
 cg2d: Sum(rhs),rhsMax =  -9.20410343496769E-08  9.41816086827301E+00
 cg2d: Sum(rhs),rhsMax =  -9.20060685416502E-08  9.42175701532902E+00
 cg2d: Sum(rhs),rhsMax =  -9.19711879987517E-08  9.42532836100955E+00
 EXTERNAL_FIELDS_LOAD, it=   3600150 : Reading new data, i0,i1=    3    4 (prev=    2    3 )
 DIC_FIELDS_LOAD, it=   3600150 : Reading new data, i0,i1=    3    4 (prev=    2    3 )
 cg2d: Sum(rhs),rhsMax =  -9.19367622032041E-08  9.42887108055882E+00
 cg2d: Sum(rhs),rhsMax =  -9.19030327395376E-08  9.43235832256638E+00
 cg2d: Sum(rhs),rhsMax =  -9.18696727580937E-08  9.43577294710938E+00
 cg2d: Sum(rhs),rhsMax =  -9.18375349101552E-08  9.43909901719340E+00
 cg2d: Sum(rhs),rhsMax =  -9.18056457521743E-08  9.44232226351574E+00
 cg2d: Sum(rhs),rhsMax =  -9.17754618967592E-08  9.44543045713848E+00
 cg2d: Sum(rhs),rhsMax =  -9.17468696570722E-08  9.44841368652191E+00
 cg2d: Sum(rhs),rhsMax =  -9.17188671678559E-08  9.45126453300903E+00
 cg2d: Sum(rhs),rhsMax =  -9.16929749905648E-08  9.45397814472091E+00
 cg2d: Sum(rhs),rhsMax =  -9.16680278351123E-08  9.45655223330268E+00
 cg2d: Sum(rhs),rhsMax =  -9.16445941356869E-08  9.45898700078271E+00
 cg2d: Sum(rhs),rhsMax =  -9.16223754643397E-08  9.46128500172268E+00
 cg2d: Sum(rhs),rhsMax =  -9.16011231311131E-08  9.46345095767279E+00
 cg2d: Sum(rhs),rhsMax =  -9.15811568802383E-08  9.46549153513779E+00
 cg2d: Sum(rhs),rhsMax =  -9.15625619768434E-08  9.46741508859273E+00
 cg2d: Sum(rhs),rhsMax =  -9.15451252581079E-08  9.46923137659912E+00
 cg2d: Sum(rhs),rhsMax =  -9.15285980340741E-08  9.47095124324780E+00
 cg2d: Sum(rhs),rhsMax =  -9.15126108225195E-08  9.47258633929544E+00
 cg2d: Sum(rhs),rhsMax =  -9.14974762622478E-08  9.47414881667898E+00
 cg2d: Sum(rhs),rhsMax =  -9.14831588261222E-08  9.47565102854520E+00
 cg2d: Sum(rhs),rhsMax =  -9.14691185016636E-08  9.47710524161440E+00
 cg2d: Sum(rhs),rhsMax =  -9.14552913400257E-08  9.47852337330871E+00
 cg2d: Sum(rhs),rhsMax =  -9.14417910280463E-08  9.47991675839448E+00
 cg2d: Sum(rhs),rhsMax =  -9.14288023068366E-08  9.48129594936036E+00
 cg2d: Sum(rhs),rhsMax =  -9.14153162057119E-08  9.48267055268677E+00
 cg2d: Sum(rhs),rhsMax =  -9.14016951014673E-08  9.48404910672501E+00
 cg2d: Sum(rhs),rhsMax =  -9.13883866360266E-08  9.48543898881096E+00
 cg2d: Sum(rhs),rhsMax =  -9.13749147457565E-08  9.48684634838855E+00
 cg2d: Sum(rhs),rhsMax =  -9.13611231112554E-08  9.48827608016959E+00
 cg2d: Sum(rhs),rhsMax =  -9.13465854068818E-08  9.48973182637241E+00
 cg2d: Sum(rhs),rhsMax =  -9.13324456064402E-08  9.49121598932757E+00
 cg2d: Sum(rhs),rhsMax =  -9.13176805283911E-08  9.49272976482376E+00
 cg2d: Sum(rhs),rhsMax =  -9.13029793991882E-08  9.49427318407705E+00
 cg2d: Sum(rhs),rhsMax =  -9.12876600978052E-08  9.49584517202971E+00
 cg2d: Sum(rhs),rhsMax =  -9.12722768475760E-08  9.49744362566448E+00
 cg2d: Sum(rhs),rhsMax =  -9.12563962174318E-08  9.49906550905340E+00
 cg2d: Sum(rhs),rhsMax =  -9.12406292741252E-08  9.50070696299551E+00
 cg2d: Sum(rhs),rhsMax =  -9.12245567974423E-08  9.50236342680402E+00
 cg2d: Sum(rhs),rhsMax =  -9.12086122184519E-08  9.50402976802920E+00
 cg2d: Sum(rhs),rhsMax =  -9.11920636781360E-08  9.50570042893596E+00
 cg2d: Sum(rhs),rhsMax =  -9.11760835720088E-08  9.50736956748404E+00
 cg2d: Sum(rhs),rhsMax =  -9.11599897790438E-08  9.50903122489705E+00
 cg2d: Sum(rhs),rhsMax =  -9.11439812512072E-08  9.51067944299842E+00
 cg2d: Sum(rhs),rhsMax =  -9.11286619498242E-08  9.51230836255520E+00
 cg2d: Sum(rhs),rhsMax =  -9.11128452685261E-08  9.51391232343393E+00
 cg2d: Sum(rhs),rhsMax =  -9.10978172896648E-08  9.51548598638282E+00
 cg2d: Sum(rhs),rhsMax =  -9.10825903588375E-08  9.51702443978652E+00
 cg2d: Sum(rhs),rhsMax =  -9.10679744947629E-08  9.51852327194360E+00
 cg2d: Sum(rhs),rhsMax =  -9.10538062726118E-08  9.51997861079381E+00
 cg2d: Sum(rhs),rhsMax =  -9.10403272769145E-08  9.52138713289450E+00
 cg2d: Sum(rhs),rhsMax =  -9.10271680254482E-08  9.52274605554116E+00
 cg2d: Sum(rhs),rhsMax =  -9.10143498344951E-08  9.52405313717331E+00
 cg2d: Sum(rhs),rhsMax =  -9.10022919242692E-08  9.52530666028232E+00
 cg2d: Sum(rhs),rhsMax =  -9.09905324419924E-08  9.52650541109617E+00
 cg2d: Sum(rhs),rhsMax =  -9.09794692915966E-08  9.52764864727963E+00
 cg2d: Sum(rhs),rhsMax =  -9.09689816808168E-08  9.52873605079492E+00
 cg2d: Sum(rhs),rhsMax =  -9.09588422359775E-08  9.52976767849440E+00
 cg2d: Sum(rhs),rhsMax =  -9.09493280687457E-08  9.53074391639987E+00
 cg2d: Sum(rhs),rhsMax =  -9.09404391791213E-08  9.53166530103624E+00
 cg2d: Sum(rhs),rhsMax =  -9.09316284491979E-08  9.53253252588939E+00
 EXTERNAL_FIELDS_LOAD, it=   3600210 : Reading new data, i0,i1=    4    5 (prev=    3    4 )
 DIC_FIELDS_LOAD, it=   3600210 : Reading new data, i0,i1=    4    5 (prev=    3    4 )
 cg2d: Sum(rhs),rhsMax =  -9.09236845814121E-08  9.53334634295211E+00
 cg2d: Sum(rhs),rhsMax =  -9.09162238826866E-08  9.53412016630968E+00
 cg2d: Sum(rhs),rhsMax =  -9.09088555545168E-08  9.53486144691540E+00
 cg2d: Sum(rhs),rhsMax =  -9.09020556605356E-08  9.53557668814411E+00
 cg2d: Sum(rhs),rhsMax =  -9.08950781308704E-08  9.53626990934916E+00
 cg2d: Sum(rhs),rhsMax =  -9.08885269268467E-08  9.53694479201801E+00
 cg2d: Sum(rhs),rhsMax =  -9.08819686173956E-08  9.53760402798875E+00
 cg2d: Sum(rhs),rhsMax =  -9.08758792661502E-08  9.53824943192211E+00
 cg2d: Sum(rhs),rhsMax =  -9.08692001644340E-08  9.53888215688552E+00
 cg2d: Sum(rhs),rhsMax =  -9.08633310814366E-08  9.53950304357000E+00
 cg2d: Sum(rhs),rhsMax =  -9.08575117364308E-08  9.54011304176576E+00
 cg2d: Sum(rhs),rhsMax =  -9.08516142317239E-08  9.54071301635899E+00
 cg2d: Sum(rhs),rhsMax =  -9.08458943627011E-08  9.54130322912294E+00
 cg2d: Sum(rhs),rhsMax =  -9.08400252797037E-08  9.54188272003942E+00
 cg2d: Sum(rhs),rhsMax =  -9.08349306882883E-08  9.54244934290944E+00
 cg2d: Sum(rhs),rhsMax =  -9.08295305634965E-08  9.54299999628384E+00
 cg2d: Sum(rhs),rhsMax =  -9.08241872821236E-08  9.54353092308816E+00
 cg2d: Sum(rhs),rhsMax =  -9.08189861092978E-08  9.54403796863502E+00
 cg2d: Sum(rhs),rhsMax =  -9.08142894218145E-08  9.54451678452915E+00
 cg2d: Sum(rhs),rhsMax =  -9.08097916862971E-08  9.54496303374895E+00
 cg2d: Sum(rhs),rhsMax =  -9.08056705384297E-08  9.54537256688658E+00
 cg2d: Sum(rhs),rhsMax =  -9.08016417611179E-08  9.54574155534994E+00
 cg2d: Sum(rhs),rhsMax =  -9.07979256226099E-08  9.54606657177462E+00
 cg2d: Sum(rhs),rhsMax =  -9.07952681927782E-08  9.54634467959792E+00
 cg2d: Sum(rhs),rhsMax =  -9.07924189164078E-08  9.54657345840157E+00
 cg2d: Sum(rhs),rhsMax =  -9.07902162339269E-08  9.54675102924543E+00
 cg2d: Sum(rhs),rhsMax =  -9.07886743561903E-08  9.54687605379506E+00
 cg2d: Sum(rhs),rhsMax =  -9.07877648614885E-08  9.54694771403842E+00
 cg2d: Sum(rhs),rhsMax =  -9.07869193156330E-08  9.54696566951997E+00
 cg2d: Sum(rhs),rhsMax =  -9.07865995714019E-08  9.54692999068711E+00
 cg2d: Sum(rhs),rhsMax =  -9.07872106381546E-08  9.54684108541375E+00
 cg2d: Sum(rhs),rhsMax =  -9.07884682987969E-08  9.54669963264824E+00
 cg2d: Sum(rhs),rhsMax =  -9.07898467517043E-08  9.54650651972953E+00
 cg2d: Sum(rhs),rhsMax =  -9.07915449488428E-08  9.54626274758502E+00
 cg2d: Sum(rhs),rhsMax =  -9.07941455352557E-08  9.54596935750525E+00
 cg2d: Sum(rhs),rhsMax =  -9.07970800767544E-08  9.54562738075971E+00
 cg2d: Sum(rhs),rhsMax =  -9.08000501453898E-08  9.54523778248193E+00
 cg2d: Sum(rhs),rhsMax =  -9.08038089164620E-08  9.54480140259877E+00
 cg2d: Sum(rhs),rhsMax =  -9.08078732209106E-08  9.54431888382345E+00
 cg2d: Sum(rhs),rhsMax =  -9.08128896526250E-08  9.54379063440704E+00
 cg2d: Sum(rhs),rhsMax =  -9.08179274006216E-08  9.54321682610369E+00
 cg2d: Sum(rhs),rhsMax =  -9.08231072571652E-08  9.54259741627488E+00
 cg2d: Sum(rhs),rhsMax =  -9.08294239820862E-08  9.54193218180504E+00
 cg2d: Sum(rhs),rhsMax =  -9.08357407070071E-08  9.54122075566689E+00
 cg2d: Sum(rhs),rhsMax =  -9.08426116552619E-08  9.54046266149910E+00
 cg2d: Sum(rhs),rhsMax =  -9.08497668206110E-08  9.53965734943055E+00
 cg2d: Sum(rhs),rhsMax =  -9.08576467395505E-08  9.53880424419014E+00
 cg2d: Sum(rhs),rhsMax =  -9.08659032461401E-08  9.53790282192021E+00
 cg2d: Sum(rhs),rhsMax =  -9.08746713434994E-08  9.53695268180845E+00
 cg2d: Sum(rhs),rhsMax =  -9.08840078750472E-08  9.53595362230667E+00
 cg2d: Sum(rhs),rhsMax =  -9.08936215182621E-08  9.53490571447803E+00
 cg2d: Sum(rhs),rhsMax =  -9.09042654484438E-08  9.53380930168364E+00
 cg2d: Sum(rhs),rhsMax =  -9.09145470018302E-08  9.53266493640869E+00
 cg2d: Sum(rhs),rhsMax =  -9.09259227910297E-08  9.53147332889492E+00
 cg2d: Sum(rhs),rhsMax =  -9.09384141323244E-08  9.53023537646442E+00
 cg2d: Sum(rhs),rhsMax =  -9.09505217805417E-08  9.52895220993865E+00
 cg2d: Sum(rhs),rhsMax =  -9.09629278567081E-08  9.52762520262973E+00
 cg2d: Sum(rhs),rhsMax =  -9.09757815747980E-08  9.52625594300855E+00
 cg2d: Sum(rhs),rhsMax =  -9.09892747813501E-08  9.52484621149773E+00
 cg2d: Sum(rhs),rhsMax =  -9.10029882561503E-08  9.52339794221070E+00
 EXTERNAL_FIELDS_LOAD, it=   3600270 : Reading new data, i0,i1=    5    6 (prev=    4    5 )
 DIC_FIELDS_LOAD, it=   3600270 : Reading new data, i0,i1=    5    6 (prev=    4    5 )
 cg2d: Sum(rhs),rhsMax =  -9.10169930534721E-08  9.52191318167782E+00
 cg2d: Sum(rhs),rhsMax =  -9.10311257484864E-08  9.52041761022813E+00
 cg2d: Sum(rhs),rhsMax =  -9.10455213443129E-08  9.51892843351038E+00
 cg2d: Sum(rhs),rhsMax =  -9.10593485059508E-08  9.51746258399289E+00
 cg2d: Sum(rhs),rhsMax =  -9.10729625047679E-08  9.51603636817957E+00
 cg2d: Sum(rhs),rhsMax =  -9.10860507019606E-08  9.51466517931999E+00
 cg2d: Sum(rhs),rhsMax =  -9.10986344138109E-08  9.51336322967766E+00
 cg2d: Sum(rhs),rhsMax =  -9.11102233658312E-08  9.51214329321166E+00
 cg2d: Sum(rhs),rhsMax =  -9.11212367782355E-08  9.51101645114812E+00
 cg2d: Sum(rhs),rhsMax =  -9.11308219997409E-08  9.50999185515969E+00
 cg2d: Sum(rhs),rhsMax =  -9.11397606273567E-08  9.50907652378690E+00
 cg2d: Sum(rhs),rhsMax =  -9.11473847509114E-08  9.50827517814543E+00
 cg2d: Sum(rhs),rhsMax =  -9.11540354309182E-08  9.50759014752173E+00
 cg2d: Sum(rhs),rhsMax =  -9.11595421371203E-08  9.50702134377118E+00
 cg2d: Sum(rhs),rhsMax =  -9.11640682943471E-08  9.50656629011210E+00
 cg2d: Sum(rhs),rhsMax =  -9.11673012637948E-08  9.50622019182364E+00
 cg2d: Sum(rhs),rhsMax =  -9.11696744765322E-08  9.50597606771963E+00
 cg2d: Sum(rhs),rhsMax =  -9.11708539774736E-08  9.50582494250500E+00
 cg2d: Sum(rhs),rhsMax =  -9.11716497853376E-08  9.50575608648473E+00
 cg2d: Sum(rhs),rhsMax =  -9.11714224116622E-08  9.50575729587021E+00
 cg2d: Sum(rhs),rhsMax =  -9.11708468720462E-08  9.50581523373235E+00
 cg2d: Sum(rhs),rhsMax =  -9.11699018502077E-08  9.50591575069248E+00
 cg2d: Sum(rhs),rhsMax =  -9.11685589244371E-08  9.50604420974297E+00
 cg2d: Sum(rhs),rhsMax =  -9.11669744141363E-08  9.50618583284504E+00
 cg2d: Sum(rhs),rhsMax =  -9.11656883317846E-08  9.50632606101357E+00
 cg2d: Sum(rhs),rhsMax =  -9.11643525114414E-08  9.50645090757042E+00
 cg2d: Sum(rhs),rhsMax =  -9.11635567035773E-08  9.50654729113363E+00
 cg2d: Sum(rhs),rhsMax =  -9.11632938027651E-08  9.50660334354173E+00
 cg2d: Sum(rhs),rhsMax =  -9.11633009081925E-08  9.50660868062301E+00
 cg2d: Sum(rhs),rhsMax =  -9.11639332912273E-08  9.50655462562515E+00
 cg2d: Sum(rhs),rhsMax =  -9.11649706836215E-08  9.50643436311089E+00
 cg2d: Sum(rhs),rhsMax =  -9.11672302095212E-08  9.50624304674150E+00
 cg2d: Sum(rhs),rhsMax =  -9.11696460548228E-08  9.50597781905916E+00
 cg2d: Sum(rhs),rhsMax =  -9.11727440211507E-08  9.50563777710892E+00
 cg2d: Sum(rhs),rhsMax =  -9.11770854372662E-08  9.50522393135291E+00
 cg2d: Sum(rhs),rhsMax =  -9.11816186999204E-08  9.50473911463816E+00
 cg2d: Sum(rhs),rhsMax =  -9.11870614572763E-08  9.50418773930678E+00
 cg2d: Sum(rhs),rhsMax =  -9.11928168534359E-08  9.50357558691374E+00
 cg2d: Sum(rhs),rhsMax =  -9.11992827923314E-08  9.50290964447458E+00
 cg2d: Sum(rhs),rhsMax =  -9.12065729608003E-08  9.50219791542795E+00
 cg2d: Sum(rhs),rhsMax =  -9.12139270781154E-08  9.50144918276843E+00
 cg2d: Sum(rhs),rhsMax =  -9.12212811954305E-08  9.50067274580360E+00
 cg2d: Sum(rhs),rhsMax =  -9.12293955934729E-08  9.49987815929010E+00
 cg2d: Sum(rhs),rhsMax =  -9.12369131356172E-08  9.49907498366882E+00
 cg2d: Sum(rhs),rhsMax =  -9.12447788437021E-08  9.49827255755378E+00
 cg2d: Sum(rhs),rhsMax =  -9.12528008711888E-08  9.49747978836020E+00
 cg2d: Sum(rhs),rhsMax =  -9.12602686753416E-08  9.49670496341604E+00
 cg2d: Sum(rhs),rhsMax =  -9.12679780640246E-08  9.49595558374171E+00
 cg2d: Sum(rhs),rhsMax =  -9.12747850634332E-08  9.49523821505845E+00
 cg2d: Sum(rhs),rhsMax =  -9.12811941589098E-08  9.49455836839740E+00
 cg2d: Sum(rhs),rhsMax =  -9.12878306280618E-08  9.49392042323925E+00
 cg2d: Sum(rhs),rhsMax =  -9.12937139219139E-08  9.49332754785973E+00
 cg2d: Sum(rhs),rhsMax =  -9.12992632606802E-08  9.49278165465699E+00
 cg2d: Sum(rhs),rhsMax =  -9.13035833605136E-08  9.49228339433203E+00
 cg2d: Sum(rhs),rhsMax =  -9.13086424247922E-08  9.49183218209292E+00
 cg2d: Sum(rhs),rhsMax =  -9.13127422563775E-08  9.49142625728328E+00
 cg2d: Sum(rhs),rhsMax =  -9.13163518134752E-08  9.49106276286301E+00
 cg2d: Sum(rhs),rhsMax =  -9.13194782015125E-08  9.49073783789306E+00
 cg2d: Sum(rhs),rhsMax =  -9.13225406407037E-08  9.49044672400271E+00
 cg2d: Sum(rhs),rhsMax =  -9.13253046519458E-08  9.49018390323782E+00
 EXTERNAL_FIELDS_LOAD, it=   3600330 : Reading new data, i0,i1=    6    7 (prev=    5    6 )
 DIC_FIELDS_LOAD, it=   3600330 : Reading new data, i0,i1=    6    7 (prev=    5    6 )
 cg2d: Sum(rhs),rhsMax =  -9.13276210212643E-08  9.48994325700856E+00
 cg2d: Sum(rhs),rhsMax =  -9.13303352945150E-08  9.48970801758053E+00
 cg2d: Sum(rhs),rhsMax =  -9.13328221940901E-08  9.48946471682098E+00
 cg2d: Sum(rhs),rhsMax =  -9.13353943587936E-08  9.48919980375378E+00
 cg2d: Sum(rhs),rhsMax =  -9.13383644274290E-08  9.48889996251626E+00
 cg2d: Sum(rhs),rhsMax =  -9.13418460868343E-08  9.48855235316500E+00
 cg2d: Sum(rhs),rhsMax =  -9.13461093432488E-08  9.48814487205053E+00
 cg2d: Sum(rhs),rhsMax =  -9.13508344524416E-08  9.48766639266868E+00
 cg2d: Sum(rhs),rhsMax =  -9.13563624749258E-08  9.48710698236420E+00
 cg2d: Sum(rhs),rhsMax =  -9.13624518261713E-08  9.48645808347463E+00
 cg2d: Sum(rhs),rhsMax =  -9.13698130489138E-08  9.48571268422533E+00
 cg2d: Sum(rhs),rhsMax =  -9.13783111400335E-08  9.48486545850383E+00
 cg2d: Sum(rhs),rhsMax =  -9.13876760932908E-08  9.48391285858374E+00
 cg2d: Sum(rhs),rhsMax =  -9.13977800109933E-08  9.48285315351105E+00
 cg2d: Sum(rhs),rhsMax =  -9.14093334358768E-08  9.48168641391458E+00
 cg2d: Sum(rhs),rhsMax =  -9.14215760872139E-08  9.48041445516485E+00
 cg2d: Sum(rhs),rhsMax =  -9.14348703418000E-08  9.47904073781749E+00
 cg2d: Sum(rhs),rhsMax =  -9.14490314585237E-08  9.47757022510765E+00
 cg2d: Sum(rhs),rhsMax =  -9.14641802296501E-08  9.47600920384239E+00
 cg2d: Sum(rhs),rhsMax =  -9.14802384954783E-08  9.47436507523804E+00
 cg2d: Sum(rhs),rhsMax =  -9.14970428311790E-08  9.47264612546539E+00
 cg2d: Sum(rhs),rhsMax =  -9.15143658630768E-08  9.47086128598380E+00
 cg2d: Sum(rhs),rhsMax =  -9.15317244221114E-08  9.46901988541289E+00
 cg2d: Sum(rhs),rhsMax =  -9.15503548526431E-08  9.46713139755286E+00
 cg2d: Sum(rhs),rhsMax =  -9.15688005420634E-08  9.46520519129246E+00
 cg2d: Sum(rhs),rhsMax =  -9.15879354579374E-08  9.46325027783096E+00
 cg2d: Sum(rhs),rhsMax =  -9.16070561629567E-08  9.46127510172983E+00
 cg2d: Sum(rhs),rhsMax =  -9.16269016215665E-08  9.45928736176468E+00
 cg2d: Sum(rhs),rhsMax =  -9.16458375854745E-08  9.45729384446051E+00
 cg2d: Sum(rhs),rhsMax =  -9.16652354021608E-08  9.45530032221759E+00
 cg2d: Sum(rhs),rhsMax =  -9.16847469056847E-08  9.45331147339530E+00
 cg2d: Sum(rhs),rhsMax =  -9.17041660386531E-08  9.45133082537812E+00
 cg2d: Sum(rhs),rhsMax =  -9.17234714847837E-08  9.44936073119909E+00
 cg2d: Sum(rhs),rhsMax =  -9.17423008672813E-08  9.44740238220463E+00
 cg2d: Sum(rhs),rhsMax =  -9.17614002560185E-08  9.44545585645758E+00
 cg2d: Sum(rhs),rhsMax =  -9.17801870059520E-08  9.44352020252140E+00
 cg2d: Sum(rhs),rhsMax =  -9.17989737558855E-08  9.44159355733174E+00
 cg2d: Sum(rhs),rhsMax =  -9.18179097197935E-08  9.43967327626014E+00
 cg2d: Sum(rhs),rhsMax =  -9.18367177860091E-08  9.43775607395104E+00
 cg2d: Sum(rhs),rhsMax =  -9.18552629514124E-08  9.43583817490269E+00
 cg2d: Sum(rhs),rhsMax =  -9.18742912858761E-08  9.43391546318717E+00
 cg2d: Sum(rhs),rhsMax =  -9.18933977800407E-08  9.43198362529795E+00
 cg2d: Sum(rhs),rhsMax =  -9.19123053222393E-08  9.43003828806143E+00
 cg2d: Sum(rhs),rhsMax =  -9.19319091963189E-08  9.42807514245689E+00
 cg2d: Sum(rhs),rhsMax =  -9.19516196518089E-08  9.42609005034801E+00
 cg2d: Sum(rhs),rhsMax =  -9.19711453661876E-08  9.42407914155286E+00
 cg2d: Sum(rhs),rhsMax =  -9.19916374186869E-08  9.42203890101561E+00
 cg2d: Sum(rhs),rhsMax =  -9.20122005254598E-08  9.41996625280574E+00
 cg2d: Sum(rhs),rhsMax =  -9.20328773190704E-08  9.41785862954787E+00
 cg2d: Sum(rhs),rhsMax =  -9.20541722848611E-08  9.41571402403211E+00
 cg2d: Sum(rhs),rhsMax =  -9.20761920042423E-08  9.41353104362712E+00
 cg2d: Sum(rhs),rhsMax =  -9.20975224971698E-08  9.41130897700722E+00
 cg2d: Sum(rhs),rhsMax =  -9.21202243375774E-08  9.40904782014454E+00
 cg2d: Sum(rhs),rhsMax =  -9.21427556477283E-08  9.40674826682519E+00
 cg2d: Sum(rhs),rhsMax =  -9.21658624974953E-08  9.40441167656376E+00
 cg2d: Sum(rhs),rhsMax =  -9.21897651551262E-08  9.40204003109270E+00
 cg2d: Sum(rhs),rhsMax =  -9.22136393910478E-08  9.39963588692061E+00
 cg2d: Sum(rhs),rhsMax =  -9.22377765277815E-08  9.39720232327049E+00
 cg2d: Sum(rhs),rhsMax =  -9.22617147125493E-08  9.39474287623570E+00
 cg2d: Sum(rhs),rhsMax =  -9.22866476571471E-08  9.39226147078604E+00
 EXTERNAL_FIELDS_LOAD, it=   3600390 : Reading new data, i0,i1=    7    8 (prev=    6    7 )
 DIC_FIELDS_LOAD, it=   3600390 : Reading new data, i0,i1=    7    8 (prev=    6    7 )
 cg2d: Sum(rhs),rhsMax =  -9.23120353490958E-08  9.38976233427929E+00
 cg2d: Sum(rhs),rhsMax =  -9.23369185557021E-08  9.38724381347799E+00
 cg2d: Sum(rhs),rhsMax =  -9.23620930848301E-08  9.38470550458213E+00
 cg2d: Sum(rhs),rhsMax =  -9.23878431535741E-08  9.38214640732935E+00
 cg2d: Sum(rhs),rhsMax =  -9.24133303215058E-08  9.37956498127073E+00
 cg2d: Sum(rhs),rhsMax =  -9.24395564538827E-08  9.37695924403383E+00
 cg2d: Sum(rhs),rhsMax =  -9.24659673273709E-08  9.37432689628576E+00
 cg2d: Sum(rhs),rhsMax =  -9.24926268908166E-08  9.37166545130188E+00
 cg2d: Sum(rhs),rhsMax =  -9.25199330481519E-08  9.36897236493602E+00
 cg2d: Sum(rhs),rhsMax =  -9.25472107837777E-08  9.36624514198210E+00
 cg2d: Sum(rhs),rhsMax =  -9.25749148450450E-08  9.36348144222541E+00
 cg2d: Sum(rhs),rhsMax =  -9.26027894365689E-08  9.36067916467522E+00
 cg2d: Sum(rhs),rhsMax =  -9.26316801042049E-08  9.35783651518778E+00
 cg2d: Sum(rhs),rhsMax =  -9.26604357687211E-08  9.35495205473915E+00
 cg2d: Sum(rhs),rhsMax =  -9.26899872411013E-08  9.35202472862356E+00
 cg2d: Sum(rhs),rhsMax =  -9.27198087197212E-08  9.34905386050751E+00
 cg2d: Sum(rhs),rhsMax =  -9.27502270542391E-08  9.34603912446753E+00
 cg2d: Sum(rhs),rhsMax =  -9.27809580275607E-08  9.34298052032945E+00
 cg2d: Sum(rhs),rhsMax =  -9.28122148025068E-08  9.33987837125357E+00
 cg2d: Sum(rhs),rhsMax =  -9.28438836922396E-08  9.33673332003228E+00
 cg2d: Sum(rhs),rhsMax =  -9.28756591633828E-08  9.33354631509102E+00
 cg2d: Sum(rhs),rhsMax =  -9.29085999246126E-08  9.33031856217985E+00
 cg2d: Sum(rhs),rhsMax =  -9.29414056827227E-08  9.32705144157814E+00
 cg2d: Sum(rhs),rhsMax =  -9.29742824951063E-08  9.32374640924821E+00
 cg2d: Sum(rhs),rhsMax =  -9.30079835370634E-08  9.32040491207867E+00
 cg2d: Sum(rhs),rhsMax =  -9.30417982658582E-08  9.31702830536998E+00
 cg2d: Sum(rhs),rhsMax =  -9.30764798567907E-08  9.31361778906816E+00
 cg2d: Sum(rhs),rhsMax =  -9.31104011669959E-08  9.31017435680010E+00
 cg2d: Sum(rhs),rhsMax =  -9.31454593455783E-08  9.30669874783390E+00
 cg2d: Sum(rhs),rhsMax =  -9.31809367443748E-08  9.30319140183628E+00
 cg2d: Sum(rhs),rhsMax =  -9.32159238686836E-08  9.29965242032067E+00
 cg2d: Sum(rhs),rhsMax =  -9.32518702256857E-08  9.29608155387300E+00
 cg2d: Sum(rhs),rhsMax =  -9.32883352788849E-08  9.29247816276956E+00
 cg2d: Sum(rhs),rhsMax =  -9.33245232204172E-08  9.28884120452690E+00
 cg2d: Sum(rhs),rhsMax =  -9.33613577558390E-08  9.28516924951164E+00
 cg2d: Sum(rhs),rhsMax =  -9.33982562401070E-08  9.28146051649491E+00
 cg2d: Sum(rhs),rhsMax =  -9.34364479121541E-08  9.27771291851975E+00
 cg2d: Sum(rhs),rhsMax =  -9.34740143065937E-08  9.27392411497484E+00
 cg2d: Sum(rhs),rhsMax =  -9.35126251988549E-08  9.27009157616147E+00
 cg2d: Sum(rhs),rhsMax =  -9.35518329470142E-08  9.26621266064052E+00
 cg2d: Sum(rhs),rhsMax =  -9.35912964905583E-08  9.26228469753356E+00
 cg2d: Sum(rhs),rhsMax =  -9.36311082000429E-08  9.25830502540661E+00
 cg2d: Sum(rhs),rhsMax =  -9.36718080879473E-08  9.25427104022615E+00
 cg2d: Sum(rhs),rhsMax =  -9.37130835154676E-08  9.25018025806528E+00
 cg2d: Sum(rhs),rhsMax =  -9.37547639523473E-08  9.24603037476154E+00
 cg2d: Sum(rhs),rhsMax =  -9.37974888870485E-08  9.24181932462259E+00
 cg2d: Sum(rhs),rhsMax =  -9.38402919814507E-08  9.23754533703139E+00
 cg2d: Sum(rhs),rhsMax =  -9.38843172093584E-08  9.23320698439808E+00
 cg2d: Sum(rhs),rhsMax =  -9.39290814017113E-08  9.22880321317793E+00
 cg2d: Sum(rhs),rhsMax =  -9.39739734917566E-08  9.22433335164241E+00
 cg2d: Sum(rhs),rhsMax =  -9.40200521881707E-08  9.21979710173837E+00
 cg2d: Sum(rhs),rhsMax =  -9.40667135296280E-08  9.21519452384442E+00
 cg2d: Sum(rhs),rhsMax =  -9.41140712029664E-08  9.21052602027441E+00
 cg2d: Sum(rhs),rhsMax =  -9.41621181027585E-08  9.20579231856880E+00
 cg2d: Sum(rhs),rhsMax =  -9.42108115964402E-08  9.20099445172383E+00
 cg2d: Sum(rhs),rhsMax =  -9.42603506359774E-08  9.19613373409314E+00
 cg2d: Sum(rhs),rhsMax =  -9.43106570616692E-08  9.19121172891709E+00
 cg2d: Sum(rhs),rhsMax =  -9.43619582471911E-08  9.18623021276131E+00
 cg2d: Sum(rhs),rhsMax =  -9.44129254776271E-08  9.18119115032627E+00
 cg2d: Sum(rhs),rhsMax =  -9.44648874678933E-08  9.17609666859133E+00
 EXTERNAL_FIELDS_LOAD, it=   3600450 : Reading new data, i0,i1=    8    9 (prev=    7    8 )
 DIC_FIELDS_LOAD, it=   3600450 : Reading new data, i0,i1=    8    9 (prev=    7    8 )
 cg2d: Sum(rhs),rhsMax =  -9.45180929079470E-08  9.17094900539886E+00
 cg2d: Sum(rhs),rhsMax =  -9.45713196642828E-08  9.16576037761048E+00
 cg2d: Sum(rhs),rhsMax =  -9.46249869571147E-08  9.16053907873528E+00
 cg2d: Sum(rhs),rhsMax =  -9.46787679367844E-08  9.15529303788953E+00
 cg2d: Sum(rhs),rhsMax =  -9.47327123412833E-08  9.15002961005962E+00
 cg2d: Sum(rhs),rhsMax =  -9.47873814993727E-08  9.14475542293395E+00
 cg2d: Sum(rhs),rhsMax =  -9.48415888046839E-08  9.13947626776025E+00
 cg2d: Sum(rhs),rhsMax =  -9.48963148061921E-08  9.13419703804716E+00
 cg2d: Sum(rhs),rhsMax =  -9.49505718494947E-08  9.12892171232682E+00
 cg2d: Sum(rhs),rhsMax =  -9.50055820680973E-08  9.12365335338700E+00
 cg2d: Sum(rhs),rhsMax =  -9.50602441207593E-08  9.11839411243203E+00
 cg2d: Sum(rhs),rhsMax =  -9.51149274897034E-08  9.11314523538299E+00
 cg2d: Sum(rhs),rhsMax =  -9.51689713701853E-08  9.10790707134369E+00
 cg2d: Sum(rhs),rhsMax =  -9.52241663298992E-08  9.10267908920085E+00
 cg2d: Sum(rhs),rhsMax =  -9.52785583763216E-08  9.09745990818067E+00
 cg2d: Sum(rhs),rhsMax =  -9.53332346398383E-08  9.09224734512777E+00
 cg2d: Sum(rhs),rhsMax =  -9.53879322196372E-08  9.08703847736888E+00
 cg2d: Sum(rhs),rhsMax =  -9.54423811094784E-08  9.08182972075513E+00
 cg2d: Sum(rhs),rhsMax =  -9.54974623823546E-08  9.07661692347198E+00
 cg2d: Sum(rhs),rhsMax =  -9.55527141854873E-08  9.07139547821490E+00
 cg2d: Sum(rhs),rhsMax =  -9.56078878289190E-08  9.06616045270155E+00
 cg2d: Sum(rhs),rhsMax =  -9.56632462134621E-08  9.06090673305150E+00
 cg2d: Sum(rhs),rhsMax =  -9.57190593453561E-08  9.05562917574046E+00
 cg2d: Sum(rhs),rhsMax =  -9.57753982788745E-08  9.05032276301453E+00
 cg2d: Sum(rhs),rhsMax =  -9.58323127520089E-08  9.04498274779792E+00
 cg2d: Sum(rhs),rhsMax =  -9.58890566948867E-08  9.03960479010611E+00
 cg2d: Sum(rhs),rhsMax =  -9.59469090844323E-08  9.03418508103277E+00
 cg2d: Sum(rhs),rhsMax =  -9.60046975251316E-08  9.02872044807494E+00
 cg2d: Sum(rhs),rhsMax =  -9.60634949365158E-08  9.02320843719522E+00
 cg2d: Sum(rhs),rhsMax =  -9.61234505325592E-08  9.01764736350553E+00
 cg2d: Sum(rhs),rhsMax =  -9.61829158541150E-08  9.01203632711249E+00
 cg2d: Sum(rhs),rhsMax =  -9.62436175200310E-08  9.00637519234014E+00
 cg2d: Sum(rhs),rhsMax =  -9.63047241953063E-08  9.00066454100738E+00
 cg2d: Sum(rhs),rhsMax =  -9.63663566722062E-08  8.99490560644289E+00
 cg2d: Sum(rhs),rhsMax =  -9.64286215321408E-08  8.98910019830229E+00
 cg2d: Sum(rhs),rhsMax =  -9.64914832479735E-08  8.98325060608421E+00
 cg2d: Sum(rhs),rhsMax =  -9.65549631359863E-08  8.97735949860674E+00
 cg2d: Sum(rhs),rhsMax =  -9.66191180395981E-08  8.97142982445055E+00
 cg2d: Sum(rhs),rhsMax =  -9.66832942594920E-08  8.96546471599943E+00
 cg2d: Sum(rhs),rhsMax =  -9.67482520763951E-08  8.95946740124540E+00
 cg2d: Sum(rhs),rhsMax =  -9.68132098932983E-08  8.95344112713886E+00
 cg2d: Sum(rhs),rhsMax =  -9.68790274669118E-08  8.94738909112794E+00
 cg2d: Sum(rhs),rhsMax =  -9.69447810916790E-08  8.94131438207753E+00
 cg2d: Sum(rhs),rhsMax =  -9.70111884157632E-08  8.93521991327319E+00
 cg2d: Sum(rhs),rhsMax =  -9.70773115227530E-08  8.92910833888471E+00
 cg2d: Sum(rhs),rhsMax =  -9.71445075492738E-08  8.92298199747039E+00
 cg2d: Sum(rhs),rhsMax =  -9.72113554098541E-08  8.91684290726808E+00
 cg2d: Sum(rhs),rhsMax =  -9.72787574937684E-08  8.91069264633776E+00
 cg2d: Sum(rhs),rhsMax =  -9.73459535202892E-08  8.90453228797114E+00
 cg2d: Sum(rhs),rhsMax =  -9.74135971887335E-08  8.89836249714105E+00
 cg2d: Sum(rhs),rhsMax =  -9.74817027099562E-08  8.89218368115518E+00
 cg2d: Sum(rhs),rhsMax =  -9.75496519117769E-08  8.88599608996445E+00
 cg2d: Sum(rhs),rhsMax =  -9.76179350686834E-08  8.87979980032782E+00
 cg2d: Sum(rhs),rhsMax =  -9.76860476953334E-08  8.87359466021019E+00
 cg2d: Sum(rhs),rhsMax =  -9.77549490244201E-08  8.86737992136571E+00
 cg2d: Sum(rhs),rhsMax =  -9.78237792992331E-08  8.86115449881272E+00
 cg2d: Sum(rhs),rhsMax =  -9.78925882577641E-08  8.85491714939279E+00
 cg2d: Sum(rhs),rhsMax =  -9.79620651264668E-08  8.84866650814923E+00
 cg2d: Sum(rhs),rhsMax =  -9.80318830556826E-08  8.84239908862083E+00
 cg2d: Sum(rhs),rhsMax =  -9.81016583523342E-08  8.83611205511795E+00
 EXTERNAL_FIELDS_LOAD, it=   3600510 : Reading new data, i0,i1=    9   10 (prev=    8    9 )
 DIC_FIELDS_LOAD, it=   3600510 : Reading new data, i0,i1=    9   10 (prev=    8    9 )
 cg2d: Sum(rhs),rhsMax =  -9.81721868242857E-08  8.82980306034887E+00
 cg2d: Sum(rhs),rhsMax =  -9.82427721396562E-08  8.82347164349139E+00
 cg2d: Sum(rhs),rhsMax =  -9.83135990395567E-08  8.81711735596894E+00
 cg2d: Sum(rhs),rhsMax =  -9.83851720093298E-08  8.81074020360017E+00
 cg2d: Sum(rhs),rhsMax =  -9.84564962891454E-08  8.80434063629974E+00
 cg2d: Sum(rhs),rhsMax =  -9.85286376931072E-08  8.79791959804717E+00
 cg2d: Sum(rhs),rhsMax =  -9.86011414738641E-08  8.79147850051498E+00
 cg2d: Sum(rhs),rhsMax =  -9.86734960406466E-08  8.78501923806664E+00
 cg2d: Sum(rhs),rhsMax =  -9.87464900958912E-08  8.77854412431977E+00
 cg2d: Sum(rhs),rhsMax =  -9.88197470519481E-08  8.77205585109022E+00
 cg2d: Sum(rhs),rhsMax =  -9.88934729662105E-08  8.76555740298602E+00
 cg2d: Sum(rhs),rhsMax =  -9.89669146633787E-08  8.75905198910442E+00
 cg2d: Sum(rhs),rhsMax =  -9.90407258427695E-08  8.75254295465281E+00
 cg2d: Sum(rhs),rhsMax =  -9.91145014950234E-08  8.74603368964057E+00
 cg2d: Sum(rhs),rhsMax =  -9.91886466295000E-08  8.73952755244439E+00
 cg2d: Sum(rhs),rhsMax =  -9.92623157003436E-08  8.73302782624689E+00
 cg2d: Sum(rhs),rhsMax =  -9.93363400425551E-08  8.72653766294564E+00
 cg2d: Sum(rhs),rhsMax =  -9.94104141227581E-08  8.72006002219781E+00
 cg2d: Sum(rhs),rhsMax =  -9.94844668866790E-08  8.71359759621992E+00
 cg2d: Sum(rhs),rhsMax =  -9.95583775420528E-08  8.70715278372291E+00
 cg2d: Sum(rhs),rhsMax =  -9.96322597757171E-08  8.70072771032166E+00
 cg2d: Sum(rhs),rhsMax =  -9.97059714791249E-08  8.69432422374462E+00
 cg2d: Sum(rhs),rhsMax =  -9.97792923840279E-08  8.68794392220557E+00
 cg2d: Sum(rhs),rhsMax =  -9.98527127649140E-08  8.68159287495532E+00
 cg2d: Sum(rhs),rhsMax =  -9.99256144496030E-08  8.67527594836007E+00
 cg2d: Sum(rhs),rhsMax =  -9.99983740257449E-08  8.66899648662334E+00
 cg2d: Sum(rhs),rhsMax =  -1.00070764119664E-07  8.66275674813775E+00
 cg2d: Sum(rhs),rhsMax =  -1.00142791836788E-07  8.65655808426570E+00
 cg2d: Sum(rhs),rhsMax =  -1.00214123222031E-07  8.65040095427649E+00
 cg2d: Sum(rhs),rhsMax =  -1.00285419080137E-07  8.64428511771589E+00
 cg2d: Sum(rhs),rhsMax =  -1.00356203347474E-07  8.63820779072895E+00
 cg2d: Sum(rhs),rhsMax =  -1.00426881033400E-07  8.63216610266613E+00
 cg2d: Sum(rhs),rhsMax =  -1.00497182131676E-07  8.62615664857018E+00
 cg2d: Sum(rhs),rhsMax =  -1.00566929006618E-07  8.62017549344574E+00
 cg2d: Sum(rhs),rhsMax =  -1.00636839306389E-07  8.61421824973427E+00
 cg2d: Sum(rhs),rhsMax =  -1.00706515127058E-07  8.60828014305759E+00
 cg2d: Sum(rhs),rhsMax =  -1.00776318845419E-07  8.60235619466164E+00
 cg2d: Sum(rhs),rhsMax =  -1.00845916506387E-07  8.59644141396147E+00
 cg2d: Sum(rhs),rhsMax =  -1.00915485745645E-07  8.59053104903554E+00
 cg2d: Sum(rhs),rhsMax =  -1.00985261042297E-07  8.58462072248315E+00
 cg2d: Sum(rhs),rhsMax =  -1.01055491086299E-07  8.57870663714626E+00
 cg2d: Sum(rhs),rhsMax =  -1.01125422702353E-07  8.57278566865890E+00
 cg2d: Sum(rhs),rhsMax =  -1.01195716695202E-07  8.56685532083521E+00
 cg2d: Sum(rhs),rhsMax =  -1.01266216745444E-07  8.56091374139585E+00
 cg2d: Sum(rhs),rhsMax =  -1.01337192859319E-07  8.55495975914983E+00
 cg2d: Sum(rhs),rhsMax =  -1.01408346608878E-07  8.54899275863313E+00
 cg2d: Sum(rhs),rhsMax =  -1.01479535885574E-07  8.54301265247851E+00
 cg2d: Sum(rhs),rhsMax =  -1.01551435705005E-07  8.53701978569626E+00
 cg2d: Sum(rhs),rhsMax =  -1.01622724457684E-07  8.53101490472480E+00
 cg2d: Sum(rhs),rhsMax =  -1.01695292187287E-07  8.52499919193590E+00
 cg2d: Sum(rhs),rhsMax =  -1.01767554383514E-07  8.51897431341724E+00
 cg2d: Sum(rhs),rhsMax =  -1.01840242905382E-07  8.51294235247767E+00
 cg2d: Sum(rhs),rhsMax =  -1.01912846162122E-07  8.50690569200869E+00
 cg2d: Sum(rhs),rhsMax =  -1.01985413891725E-07  8.50087005576702E+00
 cg2d: Sum(rhs),rhsMax =  -1.02058450579534E-07  8.49484015017416E+00
 cg2d: Sum(rhs),rhsMax =  -1.02131188839394E-07  8.48882063673028E+00
 cg2d: Sum(rhs),rhsMax =  -1.02203856044980E-07  8.48281607441673E+00
 cg2d: Sum(rhs),rhsMax =  -1.02276672464541E-07  8.47683086082370E+00
 cg2d: Sum(rhs),rhsMax =  -1.02349595465512E-07  8.47086915096995E+00
 cg2d: Sum(rhs),rhsMax =  -1.02421360281824E-07  8.46493476809303E+00
 EXTERNAL_FIELDS_LOAD, it=   3600570 : Reading new data, i0,i1=   10   11 (prev=    9   10 )
 DIC_FIELDS_LOAD, it=   3600570 : Reading new data, i0,i1=   10   11 (prev=    9   10 )
 cg2d: Sum(rhs),rhsMax =  -1.02493515896640E-07  8.45903109783263E+00
 cg2d: Sum(rhs),rhsMax =  -1.02564975179575E-07  8.45319648993583E+00
 cg2d: Sum(rhs),rhsMax =  -1.02634501786270E-07  8.44745634270964E+00
 cg2d: Sum(rhs),rhsMax =  -1.02703893389844E-07  8.44183524325516E+00
 cg2d: Sum(rhs),rhsMax =  -1.02770819410125E-07  8.43635626330932E+00
 cg2d: Sum(rhs),rhsMax =  -1.02836231974379E-07  8.43104036727980E+00
 cg2d: Sum(rhs),rhsMax =  -1.02899214482477E-07  8.42590597581903E+00
 cg2d: Sum(rhs),rhsMax =  -1.02960150627496E-07  8.42096861540595E+00
 cg2d: Sum(rhs),rhsMax =  -1.03018727770632E-07  8.41624063283881E+00
 cg2d: Sum(rhs),rhsMax =  -1.03074462742825E-07  8.41173099284368E+00
 cg2d: Sum(rhs),rhsMax =  -1.03127582917750E-07  8.40744522364360E+00
 cg2d: Sum(rhs),rhsMax =  -1.03177704602331E-07  8.40338548638234E+00
 cg2d: Sum(rhs),rhsMax =  -1.03225289649345E-07  8.39955071057647E+00
 cg2d: Sum(rhs),rhsMax =  -1.03270444640202E-07  8.39593686353065E+00
 cg2d: Sum(rhs),rhsMax =  -1.03312800092681E-07  8.39253726007720E+00
 cg2d: Sum(rhs),rhsMax =  -1.03352554958747E-07  8.38934286490718E+00
 cg2d: Sum(rhs),rhsMax =  -1.03389886874083E-07  8.38634267692018E+00
 cg2d: Sum(rhs),rhsMax =  -1.03425186637196E-07  8.38352418466840E+00
 cg2d: Sum(rhs),rhsMax =  -1.03458575040349E-07  8.38087384792736E+00
 cg2d: Sum(rhs),rhsMax =  -1.03489654179612E-07  8.37837764295235E+00
 cg2d: Sum(rhs),rhsMax =  -1.03519347760539E-07  8.37602165023152E+00
 cg2d: Sum(rhs),rhsMax =  -1.03547364460610E-07  8.37379265495454E+00
 cg2d: Sum(rhs),rhsMax =  -1.03573896126363E-07  8.37167859305842E+00
 cg2d: Sum(rhs),rhsMax =  -1.03599155920620E-07  8.36966841617237E+00
 cg2d: Sum(rhs),rhsMax =  -1.03623357006200E-07  8.36775262363169E+00
 cg2d: Sum(rhs),rhsMax =  -1.03646584648232E-07  8.36592322530019E+00
 cg2d: Sum(rhs),rhsMax =  -1.03668426731929E-07  8.36417370361670E+00
 cg2d: Sum(rhs),rhsMax =  -1.03689806962848E-07  8.36249893566327E+00
 cg2d: Sum(rhs),rhsMax =  -1.03710164012227E-07  8.36089512198643E+00
 cg2d: Sum(rhs),rhsMax =  -1.03729064448999E-07  8.35935972193128E+00
 cg2d: Sum(rhs),rhsMax =  -1.03747986202052E-07  8.35789132052859E+00
 cg2d: Sum(rhs),rhsMax =  -1.03765373182796E-07  8.35648953984663E+00
 cg2d: Sum(rhs),rhsMax =  -1.03782369365035E-07  8.35515503666620E+00
 cg2d: Sum(rhs),rhsMax =  -1.03798733164240E-07  8.35388959337713E+00
 cg2d: Sum(rhs),rhsMax =  -1.03813491136862E-07  8.35269612989214E+00
 cg2d: Sum(rhs),rhsMax =  -1.03827638042731E-07  8.35157865319166E+00
 cg2d: Sum(rhs),rhsMax =  -1.03841280463257E-07  8.35054220321588E+00
 cg2d: Sum(rhs),rhsMax =  -1.03853331268056E-07  8.34959282244478E+00
 cg2d: Sum(rhs),rhsMax =  -1.03864024936229E-07  8.34873757212784E+00
 cg2d: Sum(rhs),rhsMax =  -1.03873794898846E-07  8.34798443944571E+00
 cg2d: Sum(rhs),rhsMax =  -1.03881951929452E-07  8.34734205444848E+00
 cg2d: Sum(rhs),rhsMax =  -1.03888730507151E-07  8.34681927427749E+00
 cg2d: Sum(rhs),rhsMax =  -1.03893782466002E-07  8.34642479662444E+00
 cg2d: Sum(rhs),rhsMax =  -1.03896695691219E-07  8.34616690162161E+00
 cg2d: Sum(rhs),rhsMax =  -1.03898251779810E-07  8.34605328416144E+00
 cg2d: Sum(rhs),rhsMax =  -1.03897747294468E-07  8.34609086201575E+00
 cg2d: Sum(rhs),rhsMax =  -1.03895416714295E-07  8.34628560159372E+00
 cg2d: Sum(rhs),rhsMax =  -1.03891132141598E-07  8.34664238294981E+00
 cg2d: Sum(rhs),rhsMax =  -1.03884730151549E-07  8.34716488141953E+00
 cg2d: Sum(rhs),rhsMax =  -1.03876232060429E-07  8.34785544920597E+00
 cg2d: Sum(rhs),rhsMax =  -1.03865339440290E-07  8.34871504733891E+00
 cg2d: Sum(rhs),rhsMax =  -1.03852393351644E-07  8.34974320296400E+00
 cg2d: Sum(rhs),rhsMax =  -1.03837578535604E-07  8.35093803633076E+00
 cg2d: Sum(rhs),rhsMax =  -1.03820866570459E-07  8.35229628921908E+00
 cg2d: Sum(rhs),rhsMax =  -1.03801575335183E-07  8.35381348895399E+00
 cg2d: Sum(rhs),rhsMax =  -1.03780770643880E-07  8.35548405560547E+00
 cg2d: Sum(rhs),rhsMax =  -1.03758168279455E-07  8.35730145035772E+00
 cg2d: Sum(rhs),rhsMax =  -1.03734052459004E-07  8.35925834161856E+00
 cg2d: Sum(rhs),rhsMax =  -1.03707641585515E-07  8.36134677020027E+00
 cg2d: Sum(rhs),rhsMax =  -1.03680264373907E-07  8.36355833544679E+00
 EXTERNAL_FIELDS_LOAD, it=   3600630 : Reading new data, i0,i1=   11   12 (prev=   10   11 )
 DIC_FIELDS_LOAD, it=   3600630 : Reading new data, i0,i1=   11   12 (prev=   10   11 )
 cg2d: Sum(rhs),rhsMax =  -1.03651167648877E-07  8.36588437297216E+00
 cg2d: Sum(rhs),rhsMax =  -1.03620983793462E-07  8.36829873825493E+00
 cg2d: Sum(rhs),rhsMax =  -1.03590167555012E-07  8.37078098256463E+00
 cg2d: Sum(rhs),rhsMax =  -1.03558832620365E-07  8.37331076990736E+00
 cg2d: Sum(rhs),rhsMax =  -1.03526986094948E-07  8.37586828475342E+00
 cg2d: Sum(rhs),rhsMax =  -1.03494969039275E-07  8.37843651347270E+00
 cg2d: Sum(rhs),rhsMax =  -1.03462959089029E-07  8.38100058596186E+00
 cg2d: Sum(rhs),rhsMax =  -1.03431759157502E-07  8.38354800119352E+00
 cg2d: Sum(rhs),rhsMax =  -1.03400431328282E-07  8.38606907281455E+00
 cg2d: Sum(rhs),rhsMax =  -1.03369536930131E-07  8.38855705740912E+00
 cg2d: Sum(rhs),rhsMax =  -1.03339182544460E-07  8.39100818777902E+00
 cg2d: Sum(rhs),rhsMax =  -1.03309091059600E-07  8.39342162927294E+00
 cg2d: Sum(rhs),rhsMax =  -1.03279326424399E-07  8.39579937673915E+00
 cg2d: Sum(rhs),rhsMax =  -1.03250158645096E-07  8.39814606298476E+00
 cg2d: Sum(rhs),rhsMax =  -1.03221587721691E-07  8.40046867037939E+00
 cg2d: Sum(rhs),rhsMax =  -1.03192640210636E-07  8.40277617859981E+00
 cg2d: Sum(rhs),rhsMax =  -1.03164317977189E-07  8.40507915533000E+00
 cg2d: Sum(rhs),rhsMax =  -1.03135583628955E-07  8.40738929078001E+00
 cg2d: Sum(rhs),rhsMax =  -1.03106465587643E-07  8.40971893982490E+00
 cg2d: Sum(rhs),rhsMax =  -1.03077603341717E-07  8.41208069021930E+00
 cg2d: Sum(rhs),rhsMax =  -1.03047760546815E-07  8.41448664736628E+00
 cg2d: Sum(rhs),rhsMax =  -1.03017328001442E-07  8.41694808963461E+00
 cg2d: Sum(rhs),rhsMax =  -1.02985850958248E-07  8.41947641344255E+00
 cg2d: Sum(rhs),rhsMax =  -1.02953762848301E-07  8.42209465677943E+00
 cg2d: Sum(rhs),rhsMax =  -1.02920779454507E-07  8.42481840011152E+00
 cg2d: Sum(rhs),rhsMax =  -1.02885756803062E-07  8.42766143831664E+00
 cg2d: Sum(rhs),rhsMax =  -1.02849760708068E-07  8.43063562227923E+00
 cg2d: Sum(rhs),rhsMax =  -1.02811505087175E-07  8.43375048923612E+00
 cg2d: Sum(rhs),rhsMax =  -1.02771743115682E-07  8.43701312183894E+00
 cg2d: Sum(rhs),rhsMax =  -1.02730268736195E-07  8.44042805498092E+00
 cg2d: Sum(rhs),rhsMax =  -1.02686364300553E-07  8.44399728026233E+00
 cg2d: Sum(rhs),rhsMax =  -1.02641237731405E-07  8.44772028674299E+00
 cg2d: Sum(rhs),rhsMax =  -1.02594057693750E-07  8.45159419183708E+00
 cg2d: Sum(rhs),rhsMax =  -1.02545079982974E-07  8.45561389463918E+00
 cg2d: Sum(rhs),rhsMax =  -1.02494418285914E-07  8.45977229544668E+00
 cg2d: Sum(rhs),rhsMax =  -1.02442626825905E-07  8.46406043486096E+00
 cg2d: Sum(rhs),rhsMax =  -1.02389186906748E-07  8.46846786249842E+00
 cg2d: Sum(rhs),rhsMax =  -1.02334411167249E-07  8.47298294092153E+00
 cg2d: Sum(rhs),rhsMax =  -1.02278569613645E-07  8.47759310010859E+00
 cg2d: Sum(rhs),rhsMax =  -1.02221783038203E-07  8.48228511495217E+00
 cg2d: Sum(rhs),rhsMax =  -1.02164435134000E-07  8.48704540520819E+00
 cg2d: Sum(rhs),rhsMax =  -1.02106639587873E-07  8.49186038102640E+00
 cg2d: Sum(rhs),rhsMax =  -1.02048161920720E-07  8.49671683330553E+00
 cg2d: Sum(rhs),rhsMax =  -1.01989222400789E-07  8.50160229731839E+00
 cg2d: Sum(rhs),rhsMax =  -1.01930119456028E-07  8.50650541756349E+00
 cg2d: Sum(rhs),rhsMax =  -1.01871734159431E-07  8.51141606286167E+00
 cg2d: Sum(rhs),rhsMax =  -1.01813114383731E-07  8.51632550458549E+00
 cg2d: Sum(rhs),rhsMax =  -1.01754352499484E-07  8.52122658728227E+00
 cg2d: Sum(rhs),rhsMax =  -1.01695938781177E-07  8.52611387363114E+00
 cg2d: Sum(rhs),rhsMax =  -1.01637908755947E-07  8.53098375482528E+00
 cg2d: Sum(rhs),rhsMax =  -1.01580091893538E-07  8.53583450654913E+00
 cg2d: Sum(rhs),rhsMax =  -1.01522516615660E-07  8.54066629803099E+00
 cg2d: Sum(rhs),rhsMax =  -1.01465325030858E-07  8.54548114840508E+00
 cg2d: Sum(rhs),rhsMax =  -1.01408510033707E-07  8.55028281355603E+00
 cg2d: Sum(rhs),rhsMax =  -1.01351844250530E-07  8.55507663782142E+00
 cg2d: Sum(rhs),rhsMax =  -1.01294901355686E-07  8.55986938569464E+00
 cg2d: Sum(rhs),rhsMax =  -1.01238242677937E-07  8.56466907941720E+00
 cg2d: Sum(rhs),rhsMax =  -1.01181711897880E-07  8.56948481849350E+00
 cg2d: Sum(rhs),rhsMax =  -1.01124427942523E-07  8.57432655386490E+00
 cg2d: Sum(rhs),rhsMax =  -1.01066994773191E-07  8.57920482306538E+00
 EXTERNAL_FIELDS_LOAD, it=   3600690 : Reading new data, i0,i1=   12    1 (prev=   11   12 )
 DIC_FIELDS_LOAD, it=   3600690 : Reading new data, i0,i1=   12    1 (prev=   11   12 )
 cg2d: Sum(rhs),rhsMax =  -1.01009099751082E-07  8.58413045456863E+00
 cg2d: Sum(rhs),rhsMax =  -1.00950970249869E-07  8.58908772075261E+00
 cg2d: Sum(rhs),rhsMax =  -1.00892201260194E-07  8.59407113784658E+00
 cg2d: Sum(rhs),rhsMax =  -1.00833979388426E-07  8.59907533504329E+00
 cg2d: Sum(rhs),rhsMax =  -1.00775366718153E-07  8.60409527812640E+00
 cg2d: Sum(rhs),rhsMax =  -1.00716533779632E-07  8.60912639608676E+00
 cg2d: Sum(rhs),rhsMax =  -1.00657807422522E-07  8.61416467727663E+00
 cg2d: Sum(rhs),rhsMax =  -1.00599194752249E-07  8.61920670304104E+00
 cg2d: Sum(rhs),rhsMax =  -1.00540219705181E-07  8.62424959025954E+00
 cg2d: Sum(rhs),rhsMax =  -1.00481713616318E-07  8.62929084710763E+00
 cg2d: Sum(rhs),rhsMax =  -1.00423278581729E-07  8.63432823431656E+00
 cg2d: Sum(rhs),rhsMax =  -1.00365085131671E-07  8.63935967110789E+00
 cg2d: Sum(rhs),rhsMax =  -1.00306984052168E-07  8.64438326330631E+00
 cg2d: Sum(rhs),rhsMax =  -1.00248698231553E-07  8.64939736363611E+00
 cg2d: Sum(rhs),rhsMax =  -1.00191144269957E-07  8.65440069908248E+00
 cg2d: Sum(rhs),rhsMax =  -1.00133568992078E-07  8.65939260929048E+00
 cg2d: Sum(rhs),rhsMax =  -1.00076100295610E-07  8.66437312037654E+00
 cg2d: Sum(rhs),rhsMax =  -1.00019036608501E-07  8.66934290835576E+00
 cg2d: Sum(rhs),rhsMax =  -9.99617597585711E-08  8.67430225124478E+00
 cg2d: Sum(rhs),rhsMax =  -9.99047102823170E-08  8.67925494682890E+00
 cg2d: Sum(rhs),rhsMax =  -9.98482363456787E-08  8.68420608713978E+00
 cg2d: Sum(rhs),rhsMax =  -9.97913716105359E-08  8.68916081980566E+00
 cg2d: Sum(rhs),rhsMax =  -9.97343434505638E-08  8.69412416784580E+00
 cg2d: Sum(rhs),rhsMax =  -9.96773295014464E-08  8.69910085245627E+00
 cg2d: Sum(rhs),rhsMax =  -9.96202871306195E-08  8.70409517445086E+00
 cg2d: Sum(rhs),rhsMax =  -9.95629250155616E-08  8.70911095741398E+00
 cg2d: Sum(rhs),rhsMax =  -9.95059110664442E-08  8.71415148969223E+00
 cg2d: Sum(rhs),rhsMax =  -9.94480160443345E-08  8.71921930590513E+00
 cg2d: Sum(rhs),rhsMax =  -9.93902702361993E-08  8.72431607432102E+00
 cg2d: Sum(rhs),rhsMax =  -9.93317215147727E-08  8.72944261226047E+00
 cg2d: Sum(rhs),rhsMax =  -9.92735280647139E-08  8.73459893266904E+00
 cg2d: Sum(rhs),rhsMax =  -9.92147448641845E-08  8.73978430818157E+00
 cg2d: Sum(rhs),rhsMax =  -9.91560966667748E-08  8.74499735837366E+00
 cg2d: Sum(rhs),rhsMax =  -9.90966526615011E-08  8.75023614706347E+00
 cg2d: Sum(rhs),rhsMax =  -9.90366970654577E-08  8.75549829188909E+00
 cg2d: Sum(rhs),rhsMax =  -9.89772743764661E-08  8.76078107848702E+00
 cg2d: Sum(rhs),rhsMax =  -9.89177024735000E-08  8.76608155580086E+00
 cg2d: Sum(rhs),rhsMax =  -9.88579742511320E-08  8.77139664107964E+00
 cg2d: Sum(rhs),rhsMax =  -9.87977060162848E-08  8.77672320795606E+00
 cg2d: Sum(rhs),rhsMax =  -9.87382264838743E-08  8.78205816635757E+00
(PID.TID 0000.0001) Did not write pickup because writePickupAtEnd = FALSE
 DIC_SURFFORCING_INIT, it=   3600000 : Reading new data, i0,i1=   12    1
 QQ: pCO2 approximation method
 QQ first guess pH 8.2869849781645275,  7.129213793781922,  34.1535348423009,  2.0282,  5.43799999999999991E-4,  8.08490416966378689E-3,  2.3086000000000002
(PID.TID 0000.0001) // =======================================================
(PID.TID 0000.0001) // Model current state
(PID.TID 0000.0001) // =======================================================
(PID.TID 0000.0001) 
 EXTERNAL_FIELDS_LOAD, it=   3600000 : Reading new data, i0,i1=   12    1 (prev=   12    0 )
 DIC_FIELDS_LOAD, it=   3600000 : Reading new data, i0,i1=   12    1 (prev=   12    0 )
 cg2d: Sum(rhs),rhsMax =  -9.92433868418630E-08  8.73439671821315E+00
 cg2d: Sum(rhs),rhsMax =  -9.91844260056496E-08  8.73957958587058E+00
 cg2d: Sum(rhs),rhsMax =  -9.91252449011881E-08  8.74478969091806E+00
 cg2d: Sum(rhs),rhsMax =  -9.90665185440776E-08  8.75002495477880E+00
 cg2d: Sum(rhs),rhsMax =  -9.90068542705558E-08  8.75528284057604E+00
 cg2d: Sum(rhs),rhsMax =  -9.89473534218632E-08  8.76056047500076E+00
 cg2d: Sum(rhs),rhsMax =  -9.88878241514612E-08  8.76585475900637E+00
 cg2d: Sum(rhs),rhsMax =  -9.88279893476829E-08  8.77116249138180E+00
 cg2d: Sum(rhs),rhsMax =  -9.87682469144602E-08  8.77648047471154E+00
 cg2d: Sum(rhs),rhsMax =  -9.87087602766223E-08  8.78180560756084E+00
 cg2d: Sum(rhs),rhsMax =  -9.86489112619893E-08  8.78713494778165E+00
 cg2d: Sum(rhs),rhsMax =  -9.85891404070571E-08  8.79246575399440E+00
 cg2d: Sum(rhs),rhsMax =  -9.85293340249882E-08  8.79779549299699E+00
 cg2d: Sum(rhs),rhsMax =  -9.84700747608258E-08  8.80312181092759E+00
 cg2d: Sum(rhs),rhsMax =  -9.84108581292276E-08  8.80844249631459E+00
 cg2d: Sum(rhs),rhsMax =  -9.83516486030567E-08  8.81375547068360E+00
 cg2d: Sum(rhs),rhsMax =  -9.82926522397065E-08  8.81905885446822E+00
 cg2d: Sum(rhs),rhsMax =  -9.82337553523394E-08  8.82435106608147E+00
 cg2d: Sum(rhs),rhsMax =  -9.81751568929212E-08  8.82963093738125E+00
 cg2d: Sum(rhs),rhsMax =  -9.81166650149135E-08  8.83489782452132E+00
 cg2d: Sum(rhs),rhsMax =  -9.80585213028462E-08  8.84015168145881E+00
 cg2d: Sum(rhs),rhsMax =  -9.80007470730015E-08  8.84539306572338E+00
 cg2d: Sum(rhs),rhsMax =  -9.79429586323022E-08  8.85062306296846E+00
 cg2d: Sum(rhs),rhsMax =  -9.78853904598509E-08  8.85584316140559E+00
 cg2d: Sum(rhs),rhsMax =  -9.78280425556477E-08  8.86105508303604E+00
 cg2d: Sum(rhs),rhsMax =  -9.77709291305473E-08  8.86626061391844E+00
 cg2d: Sum(rhs),rhsMax =  -9.77132472712583E-08  8.87146147123075E+00
 cg2d: Sum(rhs),rhsMax =  -9.76563327981239E-08  8.87665923110881E+00
 cg2d: Sum(rhs),rhsMax =  -9.75990843699037E-08  8.88185530584736E+00
 cg2d: Sum(rhs),rhsMax =  -9.75420704207863E-08  8.88705095973601E+00
 EXTERNAL_FIELDS_LOAD, it=   3600030 : Reading new data, i0,i1=    1    2 (prev=   12    1 )
 DIC_FIELDS_LOAD, it=   3600030 : Reading new data, i0,i1=    1    2 (prev=   12    1 )
 cg2d: Sum(rhs),rhsMax =  -9.74853406887632E-08  8.89224735691429E+00
 cg2d: Sum(rhs),rhsMax =  -9.74287814869967E-08  8.89742706375180E+00
 cg2d: Sum(rhs),rhsMax =  -9.73723857100595E-08  8.90258000132907E+00
 cg2d: Sum(rhs),rhsMax =  -9.73164659967551E-08  8.90769672951691E+00
 cg2d: Sum(rhs),rhsMax =  -9.72612284044772E-08  8.91276878246959E+00
 cg2d: Sum(rhs),rhsMax =  -9.72070637317302E-08  8.91778889429735E+00
 cg2d: Sum(rhs),rhsMax =  -9.71530482729577E-08  8.92275113682099E+00
 cg2d: Sum(rhs),rhsMax =  -9.70993241367069E-08  8.92765100404361E+00
 cg2d: Sum(rhs),rhsMax =  -9.70471916161841E-08  8.93248545016401E+00
 cg2d: Sum(rhs),rhsMax =  -9.69955280538670E-08  8.93725287491615E+00
 cg2d: Sum(rhs),rhsMax =  -9.69441273923621E-08  8.94195305183593E+00
 cg2d: Sum(rhs),rhsMax =  -9.68941833434656E-08  8.94658701582531E+00
 cg2d: Sum(rhs),rhsMax =  -9.68450208915783E-08  8.95115692214719E+00
 cg2d: Sum(rhs),rhsMax =  -9.67962705544778E-08  8.95566589123099E+00
 cg2d: Sum(rhs),rhsMax =  -9.67482165492584E-08  8.96011786358850E+00
 cg2d: Sum(rhs),rhsMax =  -9.67008020325011E-08  8.96451747891563E+00
 cg2d: Sum(rhs),rhsMax =  -9.66539346336504E-08  8.96886998187158E+00
 cg2d: Sum(rhs),rhsMax =  -9.66078843589457E-08  8.97318115409823E+00
 cg2d: Sum(rhs),rhsMax =  -9.65621254067628E-08  8.97745726495199E+00
 cg2d: Sum(rhs),rhsMax =  -9.65159685506478E-08  8.98170502198163E+00
 cg2d: Sum(rhs),rhsMax =  -9.64709272466280E-08  8.98593151889555E+00
 cg2d: Sum(rhs),rhsMax =  -9.64258006774799E-08  8.99014423145949E+00
 cg2d: Sum(rhs),rhsMax =  -9.63806954246138E-08  8.99435085408351E+00
 cg2d: Sum(rhs),rhsMax =  -9.63354978011921E-08  8.99855914272681E+00
 cg2d: Sum(rhs),rhsMax =  -9.62904493917449E-08  9.00277662786875E+00
 cg2d: Sum(rhs),rhsMax =  -9.62449746566563E-08  9.00700998220796E+00
 cg2d: Sum(rhs),rhsMax =  -9.61997557169525E-08  9.01126574761483E+00
 cg2d: Sum(rhs),rhsMax =  -9.61540180810516E-08  9.01555039729210E+00
 cg2d: Sum(rhs),rhsMax =  -9.61077120109621E-08  9.01986971435378E+00
 cg2d: Sum(rhs),rhsMax =  -9.60613775191632E-08  9.02422880815445E+00
 cg2d: Sum(rhs),rhsMax =  -9.60143182737738E-08  9.02863205182447E+00
 cg2d: Sum(rhs),rhsMax =  -9.59668398081703E-08  9.03308295193821E+00
 cg2d: Sum(rhs),rhsMax =  -9.59189492277801E-08  9.03758400719746E+00
 cg2d: Sum(rhs),rhsMax =  -9.58706323217484E-08  9.04213663854453E+00
 cg2d: Sum(rhs),rhsMax =  -9.58215622404168E-08  9.04674109185253E+00
 cg2d: Sum(rhs),rhsMax =  -9.57721724148541E-08  9.05139640217902E+00
 cg2d: Sum(rhs),rhsMax =  -9.57223775799321E-08  9.05610040614876E+00
 cg2d: Sum(rhs),rhsMax =  -9.56718224642827E-08  9.06084979109159E+00
 cg2d: Sum(rhs),rhsMax =  -9.56211039238042E-08  9.06564017672268E+00
 cg2d: Sum(rhs),rhsMax =  -9.55700798499493E-08  9.07046622792088E+00
 cg2d: Sum(rhs),rhsMax =  -9.55189918272481E-08  9.07532179655311E+00
 cg2d: Sum(rhs),rhsMax =  -9.54672145780933E-08  9.08020008054443E+00
 cg2d: Sum(rhs),rhsMax =  -9.54156860188959E-08  9.08509379067778E+00
 cg2d: Sum(rhs),rhsMax =  -9.53640864054250E-08  9.08999532389517E+00
 cg2d: Sum(rhs),rhsMax =  -9.53120391500306E-08  9.09489685062687E+00
 cg2d: Sum(rhs),rhsMax =  -9.52604963799786E-08  9.09979078670731E+00
 cg2d: Sum(rhs),rhsMax =  -9.52091738781746E-08  9.10466952325132E+00
 cg2d: Sum(rhs),rhsMax =  -9.51581995423112E-08  9.10952586151125E+00
 cg2d: Sum(rhs),rhsMax =  -9.51075378452515E-08  9.11435305322486E+00
 cg2d: Sum(rhs),rhsMax =  -9.50568974644739E-08  9.11914489544444E+00
 cg2d: Sum(rhs),rhsMax =  -9.50070173644235E-08  9.12389583482653E+00
 cg2d: Sum(rhs),rhsMax =  -9.49582670273230E-08  9.12860106773695E+00
 cg2d: Sum(rhs),rhsMax =  -9.49094669522310E-08  9.13325671324743E+00
 cg2d: Sum(rhs),rhsMax =  -9.48612637330370E-08  9.13785989332165E+00
 cg2d: Sum(rhs),rhsMax =  -9.48139060596986E-08  9.14240888612431E+00
 cg2d: Sum(rhs),rhsMax =  -9.47671381368309E-08  9.14690322805975E+00
 cg2d: Sum(rhs),rhsMax =  -9.47210025969980E-08  9.15134376400067E+00
 cg2d: Sum(rhs),rhsMax =  -9.46753857533622E-08  9.15573262291172E+00
 cg2d: Sum(rhs),rhsMax =  -9.46305078741716E-08  9.16007311317651E+00
 cg2d: Sum(rhs),rhsMax =  -9.45855020972886E-08  9.16436954661381E+00
 EXTERNAL_FIELDS_LOAD, it=   3600090 : Reading new data, i0,i1=    2    3 (prev=    1    2 )
 DIC_FIELDS_LOAD, it=   3600090 : Reading new data, i0,i1=    2    3 (prev=    1    2 )
 cg2d: Sum(rhs),rhsMax =  -9.45416047670733E-08  9.16862700792054E+00
 cg2d: Sum(rhs),rhsMax =  -9.44977784911316E-08  9.17286965792043E+00
 cg2d: Sum(rhs),rhsMax =  -9.44538882663437E-08  9.17711460232796E+00
 cg2d: Sum(rhs),rhsMax =  -9.44097777733077E-08  9.18137827264839E+00
 cg2d: Sum(rhs),rhsMax =  -9.43655606988614E-08  9.18567586102450E+00
 cg2d: Sum(rhs),rhsMax =  -9.43208533499273E-08  9.19002086507332E+00
 cg2d: Sum(rhs),rhsMax =  -9.42755065125311E-08  9.19442473147613E+00
 cg2d: Sum(rhs),rhsMax =  -9.42294988703907E-08  9.19889660310093E+00
 cg2d: Sum(rhs),rhsMax =  -9.41831217460276E-08  9.20344317156002E+00
 cg2d: Sum(rhs),rhsMax =  -9.41357711781166E-08  9.20806863385625E+00
 cg2d: Sum(rhs),rhsMax =  -9.40875679589226E-08  9.21277472508850E+00
 cg2d: Sum(rhs),rhsMax =  -9.40387323566938E-08  9.21756082935263E+00
 cg2d: Sum(rhs),rhsMax =  -9.39891506845925E-08  9.22242415169496E+00
 cg2d: Sum(rhs),rhsMax =  -9.39387589937724E-08  9.22735992735964E+00
 cg2d: Sum(rhs),rhsMax =  -9.38874578082505E-08  9.23236166048178E+00
 cg2d: Sum(rhs),rhsMax =  -9.38360713576003E-08  9.23742136926884E+00
 cg2d: Sum(rhs),rhsMax =  -9.37847204340869E-08  9.24252982829311E+00
 cg2d: Sum(rhs),rhsMax =  -9.37326518624104E-08  9.24767682825910E+00
 cg2d: Sum(rhs),rhsMax =  -9.36799651185538E-08  9.25285135651627E+00
 cg2d: Sum(rhs),rhsMax =  -9.36278468088858E-08  9.25804181556396E+00
 cg2d: Sum(rhs),rhsMax =  -9.35753803332773E-08  9.26323624437734E+00
 cg2d: Sum(rhs),rhsMax =  -9.35233543941649E-08  9.26842252954541E+00
 cg2d: Sum(rhs),rhsMax =  -9.34712076627875E-08  9.27358855590945E+00
 cg2d: Sum(rhs),rhsMax =  -9.34198851609835E-08  9.27872221865362E+00
 cg2d: Sum(rhs),rhsMax =  -9.33687331894362E-08  9.28381269175841E+00
 cg2d: Sum(rhs),rhsMax =  -9.33183130769066E-08  9.28884990364347E+00
 cg2d: Sum(rhs),rhsMax =  -9.32684542931383E-08  9.29382460831193E+00
 cg2d: Sum(rhs),rhsMax =  -9.32194410552256E-08  9.29872876125425E+00
 cg2d: Sum(rhs),rhsMax =  -9.31711383600486E-08  9.30355578941157E+00
 cg2d: Sum(rhs),rhsMax =  -9.31240364820951E-08  9.30830071441787E+00
 cg2d: Sum(rhs),rhsMax =  -9.30773893514925E-08  9.31296016039586E+00
 cg2d: Sum(rhs),rhsMax =  -9.30318719838397E-08  9.31753230345820E+00
 cg2d: Sum(rhs),rhsMax =  -9.29872783217434E-08  9.32201677457960E+00
 cg2d: Sum(rhs),rhsMax =  -9.29437931063148E-08  9.32641453687162E+00
 cg2d: Sum(rhs),rhsMax =  -9.29007910599466E-08  9.33072777407330E+00
 cg2d: Sum(rhs),rhsMax =  -9.28590253579387E-08  9.33495977832897E+00
 cg2d: Sum(rhs),rhsMax =  -9.28177001924269E-08  9.33911483571782E+00
 cg2d: Sum(rhs),rhsMax =  -9.27770358316593E-08  9.34319809772528E+00
 cg2d: Sum(rhs),rhsMax =  -9.27373591252945E-08  9.34721542637213E+00
 cg2d: Sum(rhs),rhsMax =  -9.26982295368362E-08  9.35117321728378E+00
 cg2d: Sum(rhs),rhsMax =  -9.26594978523099E-08  9.35507820898651E+00
 cg2d: Sum(rhs),rhsMax =  -9.26212777585533E-08  9.35893728101038E+00
 cg2d: Sum(rhs),rhsMax =  -9.25836900478316E-08  9.36275724876052E+00
 cg2d: Sum(rhs),rhsMax =  -9.25467347201447E-08  9.36654466497940E+00
 cg2d: Sum(rhs),rhsMax =  -9.25093388559617E-08  9.37030563739009E+00
 cg2d: Sum(rhs),rhsMax =  -9.24723693174201E-08  9.37404566529748E+00
 cg2d: Sum(rhs),rhsMax =  -9.24358261045199E-08  9.37776950669782E+00
 cg2d: Sum(rhs),rhsMax =  -9.23998015878169E-08  9.38148107939576E+00
 cg2d: Sum(rhs),rhsMax =  -9.23633649563271E-08  9.38518340080342E+00
 cg2d: Sum(rhs),rhsMax =  -9.23271628039402E-08  9.38887856431341E+00
 cg2d: Sum(rhs),rhsMax =  -9.22907545941598E-08  9.39256775253961E+00
 cg2d: Sum(rhs),rhsMax =  -9.22549361348501E-08  9.39625127829926E+00
 cg2d: Sum(rhs),rhsMax =  -9.22186487173349E-08  9.39992865313115E+00
 cg2d: Sum(rhs),rhsMax =  -9.21831713185384E-08  9.40359867110262E+00
 cg2d: Sum(rhs),rhsMax =  -9.21473457538013E-08  9.40725949891390E+00
 cg2d: Sum(rhs),rhsMax =  -9.21119038821416E-08  9.41090875978471E+00
 cg2d: Sum(rhs),rhsMax =  -9.20763412182168E-08  9.41454361858659E+00
 cg2d: Sum(rhs),rhsMax =  -9.20410343496769E-08  9.41816086827301E+00
 cg2d: Sum(rhs),rhsMax =  -9.20060685416502E-08  9.42175701532902E+00
 cg2d: Sum(rhs),rhsMax =  -9.19711879987517E-08  9.42532836100955E+00
 EXTERNAL_FIELDS_LOAD, it=   3600150 : Reading new data, i0,i1=    3    4 (prev=    2    3 )
 DIC_FIELDS_LOAD, it=   3600150 : Reading new data, i0,i1=    3    4 (prev=    2    3 )
 cg2d: Sum(rhs),rhsMax =  -9.19367622032041E-08  9.42887108055882E+00
 cg2d: Sum(rhs),rhsMax =  -9.19030327395376E-08  9.43235832256638E+00
 cg2d: Sum(rhs),rhsMax =  -9.18696727580937E-08  9.43577294710938E+00
 cg2d: Sum(rhs),rhsMax =  -9.18375349101552E-08  9.43909901719340E+00
 cg2d: Sum(rhs),rhsMax =  -9.18056457521743E-08  9.44232226351574E+00
 cg2d: Sum(rhs),rhsMax =  -9.17754618967592E-08  9.44543045713848E+00
 cg2d: Sum(rhs),rhsMax =  -9.17468696570722E-08  9.44841368652191E+00
 cg2d: Sum(rhs),rhsMax =  -9.17188671678559E-08  9.45126453300903E+00
 cg2d: Sum(rhs),rhsMax =  -9.16929749905648E-08  9.45397814472091E+00
 cg2d: Sum(rhs),rhsMax =  -9.16680278351123E-08  9.45655223330268E+00
 cg2d: Sum(rhs),rhsMax =  -9.16445941356869E-08  9.45898700078271E+00
 cg2d: Sum(rhs),rhsMax =  -9.16223754643397E-08  9.46128500172268E+00
 cg2d: Sum(rhs),rhsMax =  -9.16011231311131E-08  9.46345095767279E+00
 cg2d: Sum(rhs),rhsMax =  -9.15811568802383E-08  9.46549153513779E+00
 cg2d: Sum(rhs),rhsMax =  -9.15625619768434E-08  9.46741508859273E+00
 cg2d: Sum(rhs),rhsMax =  -9.15451252581079E-08  9.46923137659912E+00
 cg2d: Sum(rhs),rhsMax =  -9.15285980340741E-08  9.47095124324780E+00
 cg2d: Sum(rhs),rhsMax =  -9.15126108225195E-08  9.47258633929544E+00
 cg2d: Sum(rhs),rhsMax =  -9.14974762622478E-08  9.47414881667898E+00
 cg2d: Sum(rhs),rhsMax =  -9.14831588261222E-08  9.47565102854520E+00
 cg2d: Sum(rhs),rhsMax =  -9.14691185016636E-08  9.47710524161440E+00
 cg2d: Sum(rhs),rhsMax =  -9.14552913400257E-08  9.47852337330871E+00
 cg2d: Sum(rhs),rhsMax =  -9.14417910280463E-08  9.47991675839448E+00
 cg2d: Sum(rhs),rhsMax =  -9.14288023068366E-08  9.48129594936036E+00
 cg2d: Sum(rhs),rhsMax =  -9.14153162057119E-08  9.48267055268677E+00
 cg2d: Sum(rhs),rhsMax =  -9.14016951014673E-08  9.48404910672501E+00
 cg2d: Sum(rhs),rhsMax =  -9.13883866360266E-08  9.48543898881096E+00
 cg2d: Sum(rhs),rhsMax =  -9.13749147457565E-08  9.48684634838855E+00
 cg2d: Sum(rhs),rhsMax =  -9.13611231112554E-08  9.48827608016959E+00
 cg2d: Sum(rhs),rhsMax =  -9.13465854068818E-08  9.48973182637241E+00
 cg2d: Sum(rhs),rhsMax =  -9.13324456064402E-08  9.49121598932757E+00
 cg2d: Sum(rhs),rhsMax =  -9.13176805283911E-08  9.49272976482376E+00
 cg2d: Sum(rhs),rhsMax =  -9.13029793991882E-08  9.49427318407705E+00
 cg2d: Sum(rhs),rhsMax =  -9.12876600978052E-08  9.49584517202971E+00
 cg2d: Sum(rhs),rhsMax =  -9.12722768475760E-08  9.49744362566448E+00
 cg2d: Sum(rhs),rhsMax =  -9.12563962174318E-08  9.49906550905340E+00
 cg2d: Sum(rhs),rhsMax =  -9.12406292741252E-08  9.50070696299551E+00
 cg2d: Sum(rhs),rhsMax =  -9.12245567974423E-08  9.50236342680402E+00
 cg2d: Sum(rhs),rhsMax =  -9.12086122184519E-08  9.50402976802920E+00
 cg2d: Sum(rhs),rhsMax =  -9.11920636781360E-08  9.50570042893596E+00
 cg2d: Sum(rhs),rhsMax =  -9.11760835720088E-08  9.50736956748404E+00
 cg2d: Sum(rhs),rhsMax =  -9.11599897790438E-08  9.50903122489705E+00
 cg2d: Sum(rhs),rhsMax =  -9.11439812512072E-08  9.51067944299842E+00
 cg2d: Sum(rhs),rhsMax =  -9.11286619498242E-08  9.51230836255520E+00
 cg2d: Sum(rhs),rhsMax =  -9.11128452685261E-08  9.51391232343393E+00
 cg2d: Sum(rhs),rhsMax =  -9.10978172896648E-08  9.51548598638282E+00
 cg2d: Sum(rhs),rhsMax =  -9.10825903588375E-08  9.51702443978652E+00
 cg2d: Sum(rhs),rhsMax =  -9.10679744947629E-08  9.51852327194360E+00
 cg2d: Sum(rhs),rhsMax =  -9.10538062726118E-08  9.51997861079381E+00
 cg2d: Sum(rhs),rhsMax =  -9.10403272769145E-08  9.52138713289450E+00
 cg2d: Sum(rhs),rhsMax =  -9.10271680254482E-08  9.52274605554116E+00
 cg2d: Sum(rhs),rhsMax =  -9.10143498344951E-08  9.52405313717331E+00
 cg2d: Sum(rhs),rhsMax =  -9.10022919242692E-08  9.52530666028232E+00
 cg2d: Sum(rhs),rhsMax =  -9.09905324419924E-08  9.52650541109617E+00
 cg2d: Sum(rhs),rhsMax =  -9.09794692915966E-08  9.52764864727963E+00
 cg2d: Sum(rhs),rhsMax =  -9.09689816808168E-08  9.52873605079492E+00
 cg2d: Sum(rhs),rhsMax =  -9.09588422359775E-08  9.52976767849440E+00
 cg2d: Sum(rhs),rhsMax =  -9.09493280687457E-08  9.53074391639987E+00
 cg2d: Sum(rhs),rhsMax =  -9.09404391791213E-08  9.53166530103624E+00
 cg2d: Sum(rhs),rhsMax =  -9.09316284491979E-08  9.53253252588939E+00
 EXTERNAL_FIELDS_LOAD, it=   3600210 : Reading new data, i0,i1=    4    5 (prev=    3    4 )
 DIC_FIELDS_LOAD, it=   3600210 : Reading new data, i0,i1=    4    5 (prev=    3    4 )
 cg2d: Sum(rhs),rhsMax =  -9.09236845814121E-08  9.53334634295211E+00
 cg2d: Sum(rhs),rhsMax =  -9.09162238826866E-08  9.53412016630968E+00
 cg2d: Sum(rhs),rhsMax =  -9.09088555545168E-08  9.53486144691540E+00
 cg2d: Sum(rhs),rhsMax =  -9.09020556605356E-08  9.53557668814411E+00
 cg2d: Sum(rhs),rhsMax =  -9.08950781308704E-08  9.53626990934916E+00
 cg2d: Sum(rhs),rhsMax =  -9.08885269268467E-08  9.53694479201801E+00
 cg2d: Sum(rhs),rhsMax =  -9.08819686173956E-08  9.53760402798875E+00
 cg2d: Sum(rhs),rhsMax =  -9.08758792661502E-08  9.53824943192211E+00
 cg2d: Sum(rhs),rhsMax =  -9.08692001644340E-08  9.53888215688552E+00
 cg2d: Sum(rhs),rhsMax =  -9.08633310814366E-08  9.53950304357000E+00
 cg2d: Sum(rhs),rhsMax =  -9.08575117364308E-08  9.54011304176576E+00
 cg2d: Sum(rhs),rhsMax =  -9.08516142317239E-08  9.54071301635899E+00
 cg2d: Sum(rhs),rhsMax =  -9.08458943627011E-08  9.54130322912294E+00
 cg2d: Sum(rhs),rhsMax =  -9.08400252797037E-08  9.54188272003942E+00
 cg2d: Sum(rhs),rhsMax =  -9.08349306882883E-08  9.54244934290944E+00
 cg2d: Sum(rhs),rhsMax =  -9.08295305634965E-08  9.54299999628384E+00
 cg2d: Sum(rhs),rhsMax =  -9.08241872821236E-08  9.54353092308816E+00
 cg2d: Sum(rhs),rhsMax =  -9.08189861092978E-08  9.54403796863502E+00
 cg2d: Sum(rhs),rhsMax =  -9.08142894218145E-08  9.54451678452915E+00
 cg2d: Sum(rhs),rhsMax =  -9.08097916862971E-08  9.54496303374895E+00
 cg2d: Sum(rhs),rhsMax =  -9.08056705384297E-08  9.54537256688658E+00
 cg2d: Sum(rhs),rhsMax =  -9.08016417611179E-08  9.54574155534994E+00
 cg2d: Sum(rhs),rhsMax =  -9.07979256226099E-08  9.54606657177462E+00
 cg2d: Sum(rhs),rhsMax =  -9.07952681927782E-08  9.54634467959792E+00
 cg2d: Sum(rhs),rhsMax =  -9.07924189164078E-08  9.54657345840157E+00
 cg2d: Sum(rhs),rhsMax =  -9.07902162339269E-08  9.54675102924543E+00
 cg2d: Sum(rhs),rhsMax =  -9.07886743561903E-08  9.54687605379506E+00
 cg2d: Sum(rhs),rhsMax =  -9.07877648614885E-08  9.54694771403842E+00
 cg2d: Sum(rhs),rhsMax =  -9.07869193156330E-08  9.54696566951997E+00
 cg2d: Sum(rhs),rhsMax =  -9.07865995714019E-08  9.54692999068711E+00
 cg2d: Sum(rhs),rhsMax =  -9.07872106381546E-08  9.54684108541375E+00
 cg2d: Sum(rhs),rhsMax =  -9.07884682987969E-08  9.54669963264824E+00
 cg2d: Sum(rhs),rhsMax =  -9.07898467517043E-08  9.54650651972953E+00
 cg2d: Sum(rhs),rhsMax =  -9.07915449488428E-08  9.54626274758502E+00
 cg2d: Sum(rhs),rhsMax =  -9.07941455352557E-08  9.54596935750525E+00
 cg2d: Sum(rhs),rhsMax =  -9.07970800767544E-08  9.54562738075971E+00
 cg2d: Sum(rhs),rhsMax =  -9.08000501453898E-08  9.54523778248193E+00
 cg2d: Sum(rhs),rhsMax =  -9.08038089164620E-08  9.54480140259877E+00
 cg2d: Sum(rhs),rhsMax =  -9.08078732209106E-08  9.54431888382345E+00
 cg2d: Sum(rhs),rhsMax =  -9.08128896526250E-08  9.54379063440704E+00
 cg2d: Sum(rhs),rhsMax =  -9.08179274006216E-08  9.54321682610369E+00
 cg2d: Sum(rhs),rhsMax =  -9.08231072571652E-08  9.54259741627488E+00
 cg2d: Sum(rhs),rhsMax =  -9.08294239820862E-08  9.54193218180504E+00
 cg2d: Sum(rhs),rhsMax =  -9.08357407070071E-08  9.54122075566689E+00
 cg2d: Sum(rhs),rhsMax =  -9.08426116552619E-08  9.54046266149910E+00
 cg2d: Sum(rhs),rhsMax =  -9.08497668206110E-08  9.53965734943055E+00
 cg2d: Sum(rhs),rhsMax =  -9.08576467395505E-08  9.53880424419014E+00
 cg2d: Sum(rhs),rhsMax =  -9.08659032461401E-08  9.53790282192021E+00
 cg2d: Sum(rhs),rhsMax =  -9.08746713434994E-08  9.53695268180845E+00
 cg2d: Sum(rhs),rhsMax =  -9.08840078750472E-08  9.53595362230667E+00
 cg2d: Sum(rhs),rhsMax =  -9.08936215182621E-08  9.53490571447803E+00
 cg2d: Sum(rhs),rhsMax =  -9.09042654484438E-08  9.53380930168364E+00
 cg2d: Sum(rhs),rhsMax =  -9.09145470018302E-08  9.53266493640869E+00
 cg2d: Sum(rhs),rhsMax =  -9.09259227910297E-08  9.53147332889492E+00
 cg2d: Sum(rhs),rhsMax =  -9.09384141323244E-08  9.53023537646442E+00
 cg2d: Sum(rhs),rhsMax =  -9.09505217805417E-08  9.52895220993865E+00
 cg2d: Sum(rhs),rhsMax =  -9.09629278567081E-08  9.52762520262973E+00
 cg2d: Sum(rhs),rhsMax =  -9.09757815747980E-08  9.52625594300855E+00
 cg2d: Sum(rhs),rhsMax =  -9.09892747813501E-08  9.52484621149773E+00
 cg2d: Sum(rhs),rhsMax =  -9.10029882561503E-08  9.52339794221070E+00
 EXTERNAL_FIELDS_LOAD, it=   3600270 : Reading new data, i0,i1=    5    6 (prev=    4    5 )
 DIC_FIELDS_LOAD, it=   3600270 : Reading new data, i0,i1=    5    6 (prev=    4    5 )
 cg2d: Sum(rhs),rhsMax =  -9.10169930534721E-08  9.52191318167782E+00
 cg2d: Sum(rhs),rhsMax =  -9.10311257484864E-08  9.52041761022813E+00
 cg2d: Sum(rhs),rhsMax =  -9.10455213443129E-08  9.51892843351038E+00
 cg2d: Sum(rhs),rhsMax =  -9.10593485059508E-08  9.51746258399289E+00
 cg2d: Sum(rhs),rhsMax =  -9.10729625047679E-08  9.51603636817957E+00
 cg2d: Sum(rhs),rhsMax =  -9.10860507019606E-08  9.51466517931999E+00
 cg2d: Sum(rhs),rhsMax =  -9.10986344138109E-08  9.51336322967766E+00
 cg2d: Sum(rhs),rhsMax =  -9.11102233658312E-08  9.51214329321166E+00
 cg2d: Sum(rhs),rhsMax =  -9.11212367782355E-08  9.51101645114812E+00
 cg2d: Sum(rhs),rhsMax =  -9.11308219997409E-08  9.50999185515969E+00
 cg2d: Sum(rhs),rhsMax =  -9.11397606273567E-08  9.50907652378690E+00
 cg2d: Sum(rhs),rhsMax =  -9.11473847509114E-08  9.50827517814543E+00
 cg2d: Sum(rhs),rhsMax =  -9.11540354309182E-08  9.50759014752173E+00
 cg2d: Sum(rhs),rhsMax =  -9.11595421371203E-08  9.50702134377118E+00
 cg2d: Sum(rhs),rhsMax =  -9.11640682943471E-08  9.50656629011210E+00
 cg2d: Sum(rhs),rhsMax =  -9.11673012637948E-08  9.50622019182364E+00
 cg2d: Sum(rhs),rhsMax =  -9.11696744765322E-08  9.50597606771963E+00
 cg2d: Sum(rhs),rhsMax =  -9.11708539774736E-08  9.50582494250500E+00
 cg2d: Sum(rhs),rhsMax =  -9.11716497853376E-08  9.50575608648473E+00
 cg2d: Sum(rhs),rhsMax =  -9.11714224116622E-08  9.50575729587021E+00
 cg2d: Sum(rhs),rhsMax =  -9.11708468720462E-08  9.50581523373235E+00
 cg2d: Sum(rhs),rhsMax =  -9.11699018502077E-08  9.50591575069248E+00
 cg2d: Sum(rhs),rhsMax =  -9.11685589244371E-08  9.50604420974297E+00
 cg2d: Sum(rhs),rhsMax =  -9.11669744141363E-08  9.50618583284504E+00
 cg2d: Sum(rhs),rhsMax =  -9.11656883317846E-08  9.50632606101357E+00
 cg2d: Sum(rhs),rhsMax =  -9.11643525114414E-08  9.50645090757042E+00
 cg2d: Sum(rhs),rhsMax =  -9.11635567035773E-08  9.50654729113363E+00
 cg2d: Sum(rhs),rhsMax =  -9.11632938027651E-08  9.50660334354173E+00
 cg2d: Sum(rhs),rhsMax =  -9.11633009081925E-08  9.50660868062301E+00
 cg2d: Sum(rhs),rhsMax =  -9.11639332912273E-08  9.50655462562515E+00
 cg2d: Sum(rhs),rhsMax =  -9.11649706836215E-08  9.50643436311089E+00
 cg2d: Sum(rhs),rhsMax =  -9.11672302095212E-08  9.50624304674150E+00
 cg2d: Sum(rhs),rhsMax =  -9.11696460548228E-08  9.50597781905916E+00
 cg2d: Sum(rhs),rhsMax =  -9.11727440211507E-08  9.50563777710892E+00
 cg2d: Sum(rhs),rhsMax =  -9.11770854372662E-08  9.50522393135291E+00
 cg2d: Sum(rhs),rhsMax =  -9.11816186999204E-08  9.50473911463816E+00
 cg2d: Sum(rhs),rhsMax =  -9.11870614572763E-08  9.50418773930678E+00
 cg2d: Sum(rhs),rhsMax =  -9.11928168534359E-08  9.50357558691374E+00
 cg2d: Sum(rhs),rhsMax =  -9.11992827923314E-08  9.50290964447458E+00
 cg2d: Sum(rhs),rhsMax =  -9.12065729608003E-08  9.50219791542795E+00
 cg2d: Sum(rhs),rhsMax =  -9.12139270781154E-08  9.50144918276843E+00
 cg2d: Sum(rhs),rhsMax =  -9.12212811954305E-08  9.50067274580360E+00
 cg2d: Sum(rhs),rhsMax =  -9.12293955934729E-08  9.49987815929010E+00
 cg2d: Sum(rhs),rhsMax =  -9.12369131356172E-08  9.49907498366882E+00
 cg2d: Sum(rhs),rhsMax =  -9.12447788437021E-08  9.49827255755378E+00
 cg2d: Sum(rhs),rhsMax =  -9.12528008711888E-08  9.49747978836020E+00
 cg2d: Sum(rhs),rhsMax =  -9.12602686753416E-08  9.49670496341604E+00
 cg2d: Sum(rhs),rhsMax =  -9.12679780640246E-08  9.49595558374171E+00
 cg2d: Sum(rhs),rhsMax =  -9.12747850634332E-08  9.49523821505845E+00
 cg2d: Sum(rhs),rhsMax =  -9.12811941589098E-08  9.49455836839740E+00
 cg2d: Sum(rhs),rhsMax =  -9.12878306280618E-08  9.49392042323925E+00
 cg2d: Sum(rhs),rhsMax =  -9.12937139219139E-08  9.49332754785973E+00
 cg2d: Sum(rhs),rhsMax =  -9.12992632606802E-08  9.49278165465699E+00
 cg2d: Sum(rhs),rhsMax =  -9.13035833605136E-08  9.49228339433203E+00
 cg2d: Sum(rhs),rhsMax =  -9.13086424247922E-08  9.49183218209292E+00
 cg2d: Sum(rhs),rhsMax =  -9.13127422563775E-08  9.49142625728328E+00
 cg2d: Sum(rhs),rhsMax =  -9.13163518134752E-08  9.49106276286301E+00
 cg2d: Sum(rhs),rhsMax =  -9.13194782015125E-08  9.49073783789306E+00
 cg2d: Sum(rhs),rhsMax =  -9.13225406407037E-08  9.49044672400271E+00
 cg2d: Sum(rhs),rhsMax =  -9.13253046519458E-08  9.49018390323782E+00
 EXTERNAL_FIELDS_LOAD, it=   3600330 : Reading new data, i0,i1=    6    7 (prev=    5    6 )
 DIC_FIELDS_LOAD, it=   3600330 : Reading new data, i0,i1=    6    7 (prev=    5    6 )
 cg2d: Sum(rhs),rhsMax =  -9.13276210212643E-08  9.48994325700856E+00
 cg2d: Sum(rhs),rhsMax =  -9.13303352945150E-08  9.48970801758053E+00
 cg2d: Sum(rhs),rhsMax =  -9.13328221940901E-08  9.48946471682098E+00
 cg2d: Sum(rhs),rhsMax =  -9.13353943587936E-08  9.48919980375378E+00
 cg2d: Sum(rhs),rhsMax =  -9.13383644274290E-08  9.48889996251626E+00
 cg2d: Sum(rhs),rhsMax =  -9.13418460868343E-08  9.48855235316500E+00
 cg2d: Sum(rhs),rhsMax =  -9.13461093432488E-08  9.48814487205053E+00
 cg2d: Sum(rhs),rhsMax =  -9.13508344524416E-08  9.48766639266868E+00
 cg2d: Sum(rhs),rhsMax =  -9.13563624749258E-08  9.48710698236420E+00
 cg2d: Sum(rhs),rhsMax =  -9.13624518261713E-08  9.48645808347463E+00
 cg2d: Sum(rhs),rhsMax =  -9.13698130489138E-08  9.48571268422533E+00
 cg2d: Sum(rhs),rhsMax =  -9.13783111400335E-08  9.48486545850383E+00
 cg2d: Sum(rhs),rhsMax =  -9.13876760932908E-08  9.48391285858374E+00
 cg2d: Sum(rhs),rhsMax =  -9.13977800109933E-08  9.48285315351105E+00
 cg2d: Sum(rhs),rhsMax =  -9.14093334358768E-08  9.48168641391458E+00
 cg2d: Sum(rhs),rhsMax =  -9.14215760872139E-08  9.48041445516485E+00
 cg2d: Sum(rhs),rhsMax =  -9.14348703418000E-08  9.47904073781749E+00
 cg2d: Sum(rhs),rhsMax =  -9.14490314585237E-08  9.47757022510765E+00
 cg2d: Sum(rhs),rhsMax =  -9.14641802296501E-08  9.47600920384239E+00
 cg2d: Sum(rhs),rhsMax =  -9.14802384954783E-08  9.47436507523804E+00
 cg2d: Sum(rhs),rhsMax =  -9.14970428311790E-08  9.47264612546539E+00
 cg2d: Sum(rhs),rhsMax =  -9.15143658630768E-08  9.47086128598380E+00
 cg2d: Sum(rhs),rhsMax =  -9.15317244221114E-08  9.46901988541289E+00
 cg2d: Sum(rhs),rhsMax =  -9.15503548526431E-08  9.46713139755286E+00
 cg2d: Sum(rhs),rhsMax =  -9.15688005420634E-08  9.46520519129246E+00
 cg2d: Sum(rhs),rhsMax =  -9.15879354579374E-08  9.46325027783096E+00
 cg2d: Sum(rhs),rhsMax =  -9.16070561629567E-08  9.46127510172983E+00
 cg2d: Sum(rhs),rhsMax =  -9.16269016215665E-08  9.45928736176468E+00
 cg2d: Sum(rhs),rhsMax =  -9.16458375854745E-08  9.45729384446051E+00
 cg2d: Sum(rhs),rhsMax =  -9.16652354021608E-08  9.45530032221759E+00
 cg2d: Sum(rhs),rhsMax =  -9.16847469056847E-08  9.45331147339530E+00
 cg2d: Sum(rhs),rhsMax =  -9.17041660386531E-08  9.45133082537812E+00
 cg2d: Sum(rhs),rhsMax =  -9.17234714847837E-08  9.44936073119909E+00
 cg2d: Sum(rhs),rhsMax =  -9.17423008672813E-08  9.44740238220463E+00
 cg2d: Sum(rhs),rhsMax =  -9.17614002560185E-08  9.44545585645758E+00
 cg2d: Sum(rhs),rhsMax =  -9.17801870059520E-08  9.44352020252140E+00
 cg2d: Sum(rhs),rhsMax =  -9.17989737558855E-08  9.44159355733174E+00
 cg2d: Sum(rhs),rhsMax =  -9.18179097197935E-08  9.43967327626014E+00
 cg2d: Sum(rhs),rhsMax =  -9.18367177860091E-08  9.43775607395104E+00
 cg2d: Sum(rhs),rhsMax =  -9.18552629514124E-08  9.43583817490269E+00
 cg2d: Sum(rhs),rhsMax =  -9.18742912858761E-08  9.43391546318717E+00
 cg2d: Sum(rhs),rhsMax =  -9.18933977800407E-08  9.43198362529795E+00
 cg2d: Sum(rhs),rhsMax =  -9.19123053222393E-08  9.43003828806143E+00
 cg2d: Sum(rhs),rhsMax =  -9.19319091963189E-08  9.42807514245689E+00
 cg2d: Sum(rhs),rhsMax =  -9.19516196518089E-08  9.42609005034801E+00
 cg2d: Sum(rhs),rhsMax =  -9.19711453661876E-08  9.42407914155286E+00
 cg2d: Sum(rhs),rhsMax =  -9.19916374186869E-08  9.42203890101561E+00
 cg2d: Sum(rhs),rhsMax =  -9.20122005254598E-08  9.41996625280574E+00
 cg2d: Sum(rhs),rhsMax =  -9.20328773190704E-08  9.41785862954787E+00
 cg2d: Sum(rhs),rhsMax =  -9.20541722848611E-08  9.41571402403211E+00
 cg2d: Sum(rhs),rhsMax =  -9.20761920042423E-08  9.41353104362712E+00
 cg2d: Sum(rhs),rhsMax =  -9.20975224971698E-08  9.41130897700722E+00
 cg2d: Sum(rhs),rhsMax =  -9.21202243375774E-08  9.40904782014454E+00
 cg2d: Sum(rhs),rhsMax =  -9.21427556477283E-08  9.40674826682519E+00
 cg2d: Sum(rhs),rhsMax =  -9.21658624974953E-08  9.40441167656376E+00
 cg2d: Sum(rhs),rhsMax =  -9.21897651551262E-08  9.40204003109270E+00
 cg2d: Sum(rhs),rhsMax =  -9.22136393910478E-08  9.39963588692061E+00
 cg2d: Sum(rhs),rhsMax =  -9.22377765277815E-08  9.39720232327049E+00
 cg2d: Sum(rhs),rhsMax =  -9.22617147125493E-08  9.39474287623570E+00
 cg2d: Sum(rhs),rhsMax =  -9.22866476571471E-08  9.39226147078604E+00
 EXTERNAL_FIELDS_LOAD, it=   3600390 : Reading new data, i0,i1=    7    8 (prev=    6    7 )
 DIC_FIELDS_LOAD, it=   3600390 : Reading new data, i0,i1=    7    8 (prev=    6    7 )
 cg2d: Sum(rhs),rhsMax =  -9.23120353490958E-08  9.38976233427929E+00
 cg2d: Sum(rhs),rhsMax =  -9.23369185557021E-08  9.38724381347799E+00
 cg2d: Sum(rhs),rhsMax =  -9.23620930848301E-08  9.38470550458213E+00
 cg2d: Sum(rhs),rhsMax =  -9.23878431535741E-08  9.38214640732935E+00
 cg2d: Sum(rhs),rhsMax =  -9.24133303215058E-08  9.37956498127073E+00
 cg2d: Sum(rhs),rhsMax =  -9.24395564538827E-08  9.37695924403383E+00
 cg2d: Sum(rhs),rhsMax =  -9.24659673273709E-08  9.37432689628576E+00
 cg2d: Sum(rhs),rhsMax =  -9.24926268908166E-08  9.37166545130188E+00
 cg2d: Sum(rhs),rhsMax =  -9.25199330481519E-08  9.36897236493602E+00
 cg2d: Sum(rhs),rhsMax =  -9.25472107837777E-08  9.36624514198210E+00
 cg2d: Sum(rhs),rhsMax =  -9.25749148450450E-08  9.36348144222541E+00
 cg2d: Sum(rhs),rhsMax =  -9.26027894365689E-08  9.36067916467522E+00
 cg2d: Sum(rhs),rhsMax =  -9.26316801042049E-08  9.35783651518778E+00
 cg2d: Sum(rhs),rhsMax =  -9.26604357687211E-08  9.35495205473915E+00
 cg2d: Sum(rhs),rhsMax =  -9.26899872411013E-08  9.35202472862356E+00
 cg2d: Sum(rhs),rhsMax =  -9.27198087197212E-08  9.34905386050751E+00
 cg2d: Sum(rhs),rhsMax =  -9.27502270542391E-08  9.34603912446753E+00
 cg2d: Sum(rhs),rhsMax =  -9.27809580275607E-08  9.34298052032945E+00
 cg2d: Sum(rhs),rhsMax =  -9.28122148025068E-08  9.33987837125357E+00
 cg2d: Sum(rhs),rhsMax =  -9.28438836922396E-08  9.33673332003228E+00
 cg2d: Sum(rhs),rhsMax =  -9.28756591633828E-08  9.33354631509102E+00
 cg2d: Sum(rhs),rhsMax =  -9.29085999246126E-08  9.33031856217985E+00
 cg2d: Sum(rhs),rhsMax =  -9.29414056827227E-08  9.32705144157814E+00
 cg2d: Sum(rhs),rhsMax =  -9.29742824951063E-08  9.32374640924821E+00
 cg2d: Sum(rhs),rhsMax =  -9.30079835370634E-08  9.32040491207867E+00
 cg2d: Sum(rhs),rhsMax =  -9.30417982658582E-08  9.31702830536998E+00
 cg2d: Sum(rhs),rhsMax =  -9.30764798567907E-08  9.31361778906816E+00
 cg2d: Sum(rhs),rhsMax =  -9.31104011669959E-08  9.31017435680010E+00
 cg2d: Sum(rhs),rhsMax =  -9.31454593455783E-08  9.30669874783390E+00
 cg2d: Sum(rhs),rhsMax =  -9.31809367443748E-08  9.30319140183628E+00
 cg2d: Sum(rhs),rhsMax =  -9.32159238686836E-08  9.29965242032067E+00
 cg2d: Sum(rhs),rhsMax =  -9.32518702256857E-08  9.29608155387300E+00
 cg2d: Sum(rhs),rhsMax =  -9.32883352788849E-08  9.29247816276956E+00
 cg2d: Sum(rhs),rhsMax =  -9.33245232204172E-08  9.28884120452690E+00
 cg2d: Sum(rhs),rhsMax =  -9.33613577558390E-08  9.28516924951164E+00
 cg2d: Sum(rhs),rhsMax =  -9.33982562401070E-08  9.28146051649491E+00
 cg2d: Sum(rhs),rhsMax =  -9.34364479121541E-08  9.27771291851975E+00
 cg2d: Sum(rhs),rhsMax =  -9.34740143065937E-08  9.27392411497484E+00
 cg2d: Sum(rhs),rhsMax =  -9.35126251988549E-08  9.27009157616147E+00
 cg2d: Sum(rhs),rhsMax =  -9.35518329470142E-08  9.26621266064052E+00
 cg2d: Sum(rhs),rhsMax =  -9.35912964905583E-08  9.26228469753356E+00
 cg2d: Sum(rhs),rhsMax =  -9.36311082000429E-08  9.25830502540661E+00
 cg2d: Sum(rhs),rhsMax =  -9.36718080879473E-08  9.25427104022615E+00
 cg2d: Sum(rhs),rhsMax =  -9.37130835154676E-08  9.25018025806528E+00
 cg2d: Sum(rhs),rhsMax =  -9.37547639523473E-08  9.24603037476154E+00
 cg2d: Sum(rhs),rhsMax =  -9.37974888870485E-08  9.24181932462259E+00
 cg2d: Sum(rhs),rhsMax =  -9.38402919814507E-08  9.23754533703139E+00
 cg2d: Sum(rhs),rhsMax =  -9.38843172093584E-08  9.23320698439808E+00
 cg2d: Sum(rhs),rhsMax =  -9.39290814017113E-08  9.22880321317793E+00
 cg2d: Sum(rhs),rhsMax =  -9.39739734917566E-08  9.22433335164241E+00
 cg2d: Sum(rhs),rhsMax =  -9.40200521881707E-08  9.21979710173837E+00
 cg2d: Sum(rhs),rhsMax =  -9.40667135296280E-08  9.21519452384442E+00
 cg2d: Sum(rhs),rhsMax =  -9.41140712029664E-08  9.21052602027441E+00
 cg2d: Sum(rhs),rhsMax =  -9.41621181027585E-08  9.20579231856880E+00
 cg2d: Sum(rhs),rhsMax =  -9.42108115964402E-08  9.20099445172383E+00
 cg2d: Sum(rhs),rhsMax =  -9.42603506359774E-08  9.19613373409314E+00
 cg2d: Sum(rhs),rhsMax =  -9.43106570616692E-08  9.19121172891709E+00
 cg2d: Sum(rhs),rhsMax =  -9.43619582471911E-08  9.18623021276131E+00
 cg2d: Sum(rhs),rhsMax =  -9.44129254776271E-08  9.18119115032627E+00
 cg2d: Sum(rhs),rhsMax =  -9.44648874678933E-08  9.17609666859133E+00
 EXTERNAL_FIELDS_LOAD, it=   3600450 : Reading new data, i0,i1=    8    9 (prev=    7    8 )
 DIC_FIELDS_LOAD, it=   3600450 : Reading new data, i0,i1=    8    9 (prev=    7    8 )
 cg2d: Sum(rhs),rhsMax =  -9.45180929079470E-08  9.17094900539886E+00
 cg2d: Sum(rhs),rhsMax =  -9.45713196642828E-08  9.16576037761048E+00
 cg2d: Sum(rhs),rhsMax =  -9.46249869571147E-08  9.16053907873528E+00
 cg2d: Sum(rhs),rhsMax =  -9.46787679367844E-08  9.15529303788953E+00
 cg2d: Sum(rhs),rhsMax =  -9.47327123412833E-08  9.15002961005962E+00
 cg2d: Sum(rhs),rhsMax =  -9.47873814993727E-08  9.14475542293395E+00
 cg2d: Sum(rhs),rhsMax =  -9.48415888046839E-08  9.13947626776025E+00
 cg2d: Sum(rhs),rhsMax =  -9.48963148061921E-08  9.13419703804716E+00
 cg2d: Sum(rhs),rhsMax =  -9.49505718494947E-08  9.12892171232682E+00
 cg2d: Sum(rhs),rhsMax =  -9.50055820680973E-08  9.12365335338700E+00
 cg2d: Sum(rhs),rhsMax =  -9.50602441207593E-08  9.11839411243203E+00
 cg2d: Sum(rhs),rhsMax =  -9.51149274897034E-08  9.11314523538299E+00
 cg2d: Sum(rhs),rhsMax =  -9.51689713701853E-08  9.10790707134369E+00
 cg2d: Sum(rhs),rhsMax =  -9.52241663298992E-08  9.10267908920085E+00
 cg2d: Sum(rhs),rhsMax =  -9.52785583763216E-08  9.09745990818067E+00
 cg2d: Sum(rhs),rhsMax =  -9.53332346398383E-08  9.09224734512777E+00
 cg2d: Sum(rhs),rhsMax =  -9.53879322196372E-08  9.08703847736888E+00
 cg2d: Sum(rhs),rhsMax =  -9.54423811094784E-08  9.08182972075513E+00
 cg2d: Sum(rhs),rhsMax =  -9.54974623823546E-08  9.07661692347198E+00
 cg2d: Sum(rhs),rhsMax =  -9.55527141854873E-08  9.07139547821490E+00
 cg2d: Sum(rhs),rhsMax =  -9.56078878289190E-08  9.06616045270155E+00
 cg2d: Sum(rhs),rhsMax =  -9.56632462134621E-08  9.06090673305150E+00
 cg2d: Sum(rhs),rhsMax =  -9.57190593453561E-08  9.05562917574046E+00
 cg2d: Sum(rhs),rhsMax =  -9.57753982788745E-08  9.05032276301453E+00
 cg2d: Sum(rhs),rhsMax =  -9.58323127520089E-08  9.04498274779792E+00
 cg2d: Sum(rhs),rhsMax =  -9.58890566948867E-08  9.03960479010611E+00
 cg2d: Sum(rhs),rhsMax =  -9.59469090844323E-08  9.03418508103277E+00
 cg2d: Sum(rhs),rhsMax =  -9.60046975251316E-08  9.02872044807494E+00
 cg2d: Sum(rhs),rhsMax =  -9.60634949365158E-08  9.02320843719522E+00
 cg2d: Sum(rhs),rhsMax =  -9.61234505325592E-08  9.01764736350553E+00
 cg2d: Sum(rhs),rhsMax =  -9.61829158541150E-08  9.01203632711249E+00
 cg2d: Sum(rhs),rhsMax =  -9.62436175200310E-08  9.00637519234014E+00
 cg2d: Sum(rhs),rhsMax =  -9.63047241953063E-08  9.00066454100738E+00
 cg2d: Sum(rhs),rhsMax =  -9.63663566722062E-08  8.99490560644289E+00
 cg2d: Sum(rhs),rhsMax =  -9.64286215321408E-08  8.98910019830229E+00
 cg2d: Sum(rhs),rhsMax =  -9.64914832479735E-08  8.98325060608421E+00
 cg2d: Sum(rhs),rhsMax =  -9.65549631359863E-08  8.97735949860674E+00
 cg2d: Sum(rhs),rhsMax =  -9.66191180395981E-08  8.97142982445055E+00
 cg2d: Sum(rhs),rhsMax =  -9.66832942594920E-08  8.96546471599943E+00
 cg2d: Sum(rhs),rhsMax =  -9.67482520763951E-08  8.95946740124540E+00
 cg2d: Sum(rhs),rhsMax =  -9.68132098932983E-08  8.95344112713886E+00
 cg2d: Sum(rhs),rhsMax =  -9.68790274669118E-08  8.94738909112794E+00
 cg2d: Sum(rhs),rhsMax =  -9.69447810916790E-08  8.94131438207753E+00
 cg2d: Sum(rhs),rhsMax =  -9.70111884157632E-08  8.93521991327319E+00
 cg2d: Sum(rhs),rhsMax =  -9.70773115227530E-08  8.92910833888471E+00
 cg2d: Sum(rhs),rhsMax =  -9.71445075492738E-08  8.92298199747039E+00
 cg2d: Sum(rhs),rhsMax =  -9.72113554098541E-08  8.91684290726808E+00
 cg2d: Sum(rhs),rhsMax =  -9.72787574937684E-08  8.91069264633776E+00
 cg2d: Sum(rhs),rhsMax =  -9.73459535202892E-08  8.90453228797114E+00
 cg2d: Sum(rhs),rhsMax =  -9.74135971887335E-08  8.89836249714105E+00
 cg2d: Sum(rhs),rhsMax =  -9.74817027099562E-08  8.89218368115518E+00
 cg2d: Sum(rhs),rhsMax =  -9.75496519117769E-08  8.88599608996445E+00
 cg2d: Sum(rhs),rhsMax =  -9.76179350686834E-08  8.87979980032782E+00
 cg2d: Sum(rhs),rhsMax =  -9.76860476953334E-08  8.87359466021019E+00
 cg2d: Sum(rhs),rhsMax =  -9.77549490244201E-08  8.86737992136571E+00
 cg2d: Sum(rhs),rhsMax =  -9.78237792992331E-08  8.86115449881272E+00
 cg2d: Sum(rhs),rhsMax =  -9.78925882577641E-08  8.85491714939279E+00
 cg2d: Sum(rhs),rhsMax =  -9.79620651264668E-08  8.84866650814923E+00
 cg2d: Sum(rhs),rhsMax =  -9.80318830556826E-08  8.84239908862083E+00
 cg2d: Sum(rhs),rhsMax =  -9.81016583523342E-08  8.83611205511795E+00
 EXTERNAL_FIELDS_LOAD, it=   3600510 : Reading new data, i0,i1=    9   10 (prev=    8    9 )
 DIC_FIELDS_LOAD, it=   3600510 : Reading new data, i0,i1=    9   10 (prev=    8    9 )
 cg2d: Sum(rhs),rhsMax =  -9.81721868242857E-08  8.82980306034887E+00
 cg2d: Sum(rhs),rhsMax =  -9.82427721396562E-08  8.82347164349139E+00
 cg2d: Sum(rhs),rhsMax =  -9.83135990395567E-08  8.81711735596894E+00
 cg2d: Sum(rhs),rhsMax =  -9.83851720093298E-08  8.81074020360017E+00
 cg2d: Sum(rhs),rhsMax =  -9.84564962891454E-08  8.80434063629974E+00
 cg2d: Sum(rhs),rhsMax =  -9.85286376931072E-08  8.79791959804717E+00
 cg2d: Sum(rhs),rhsMax =  -9.86011414738641E-08  8.79147850051498E+00
 cg2d: Sum(rhs),rhsMax =  -9.86734960406466E-08  8.78501923806664E+00
 cg2d: Sum(rhs),rhsMax =  -9.87464900958912E-08  8.77854412431977E+00
 cg2d: Sum(rhs),rhsMax =  -9.88197470519481E-08  8.77205585109022E+00
 cg2d: Sum(rhs),rhsMax =  -9.88934729662105E-08  8.76555740298602E+00
 cg2d: Sum(rhs),rhsMax =  -9.89669146633787E-08  8.75905198910442E+00
 cg2d: Sum(rhs),rhsMax =  -9.90407258427695E-08  8.75254295465281E+00
 cg2d: Sum(rhs),rhsMax =  -9.91145014950234E-08  8.74603368964057E+00
 cg2d: Sum(rhs),rhsMax =  -9.91886466295000E-08  8.73952755244439E+00
 cg2d: Sum(rhs),rhsMax =  -9.92623157003436E-08  8.73302782624689E+00
 cg2d: Sum(rhs),rhsMax =  -9.93363400425551E-08  8.72653766294564E+00
 cg2d: Sum(rhs),rhsMax =  -9.94104141227581E-08  8.72006002219781E+00
 cg2d: Sum(rhs),rhsMax =  -9.94844668866790E-08  8.71359759621992E+00
 cg2d: Sum(rhs),rhsMax =  -9.95583775420528E-08  8.70715278372291E+00
 cg2d: Sum(rhs),rhsMax =  -9.96322597757171E-08  8.70072771032166E+00
 cg2d: Sum(rhs),rhsMax =  -9.97059714791249E-08  8.69432422374462E+00
 cg2d: Sum(rhs),rhsMax =  -9.97792923840279E-08  8.68794392220557E+00
 cg2d: Sum(rhs),rhsMax =  -9.98527127649140E-08  8.68159287495532E+00
 cg2d: Sum(rhs),rhsMax =  -9.99256144496030E-08  8.67527594836007E+00
 cg2d: Sum(rhs),rhsMax =  -9.99983740257449E-08  8.66899648662334E+00
 cg2d: Sum(rhs),rhsMax =  -1.00070764119664E-07  8.66275674813775E+00
 cg2d: Sum(rhs),rhsMax =  -1.00142791836788E-07  8.65655808426570E+00
 cg2d: Sum(rhs),rhsMax =  -1.00214123222031E-07  8.65040095427649E+00
 cg2d: Sum(rhs),rhsMax =  -1.00285419080137E-07  8.64428511771589E+00
 cg2d: Sum(rhs),rhsMax =  -1.00356203347474E-07  8.63820779072895E+00
 cg2d: Sum(rhs),rhsMax =  -1.00426881033400E-07  8.63216610266613E+00
 cg2d: Sum(rhs),rhsMax =  -1.00497182131676E-07  8.62615664857018E+00
 cg2d: Sum(rhs),rhsMax =  -1.00566929006618E-07  8.62017549344574E+00
 cg2d: Sum(rhs),rhsMax =  -1.00636839306389E-07  8.61421824973427E+00
 cg2d: Sum(rhs),rhsMax =  -1.00706515127058E-07  8.60828014305759E+00
 cg2d: Sum(rhs),rhsMax =  -1.00776318845419E-07  8.60235619466164E+00
 cg2d: Sum(rhs),rhsMax =  -1.00845916506387E-07  8.59644141396147E+00
 cg2d: Sum(rhs),rhsMax =  -1.00915485745645E-07  8.59053104903554E+00
 cg2d: Sum(rhs),rhsMax =  -1.00985261042297E-07  8.58462072248315E+00
 cg2d: Sum(rhs),rhsMax =  -1.01055491086299E-07  8.57870663714626E+00
 cg2d: Sum(rhs),rhsMax =  -1.01125422702353E-07  8.57278566865890E+00
 cg2d: Sum(rhs),rhsMax =  -1.01195716695202E-07  8.56685532083521E+00
 cg2d: Sum(rhs),rhsMax =  -1.01266216745444E-07  8.56091374139585E+00
 cg2d: Sum(rhs),rhsMax =  -1.01337192859319E-07  8.55495975914983E+00
 cg2d: Sum(rhs),rhsMax =  -1.01408346608878E-07  8.54899275863313E+00
 cg2d: Sum(rhs),rhsMax =  -1.01479535885574E-07  8.54301265247851E+00
 cg2d: Sum(rhs),rhsMax =  -1.01551435705005E-07  8.53701978569626E+00
 cg2d: Sum(rhs),rhsMax =  -1.01622724457684E-07  8.53101490472480E+00
 cg2d: Sum(rhs),rhsMax =  -1.01695292187287E-07  8.52499919193590E+00
 cg2d: Sum(rhs),rhsMax =  -1.01767554383514E-07  8.51897431341724E+00
 cg2d: Sum(rhs),rhsMax =  -1.01840242905382E-07  8.51294235247767E+00
 cg2d: Sum(rhs),rhsMax =  -1.01912846162122E-07  8.50690569200869E+00
 cg2d: Sum(rhs),rhsMax =  -1.01985413891725E-07  8.50087005576702E+00
 cg2d: Sum(rhs),rhsMax =  -1.02058450579534E-07  8.49484015017416E+00
 cg2d: Sum(rhs),rhsMax =  -1.02131188839394E-07  8.48882063673028E+00
 cg2d: Sum(rhs),rhsMax =  -1.02203856044980E-07  8.48281607441673E+00
 cg2d: Sum(rhs),rhsMax =  -1.02276672464541E-07  8.47683086082370E+00
 cg2d: Sum(rhs),rhsMax =  -1.02349595465512E-07  8.47086915096995E+00
 cg2d: Sum(rhs),rhsMax =  -1.02421360281824E-07  8.46493476809303E+00
 EXTERNAL_FIELDS_LOAD, it=   3600570 : Reading new data, i0,i1=   10   11 (prev=    9   10 )
 DIC_FIELDS_LOAD, it=   3600570 : Reading new data, i0,i1=   10   11 (prev=    9   10 )
 cg2d: Sum(rhs),rhsMax =  -1.02493515896640E-07  8.45903109783263E+00
 cg2d: Sum(rhs),rhsMax =  -1.02564975179575E-07  8.45319648993583E+00
 cg2d: Sum(rhs),rhsMax =  -1.02634501786270E-07  8.44745634270964E+00
 cg2d: Sum(rhs),rhsMax =  -1.02703893389844E-07  8.44183524325516E+00
 cg2d: Sum(rhs),rhsMax =  -1.02770819410125E-07  8.43635626330932E+00
 cg2d: Sum(rhs),rhsMax =  -1.02836231974379E-07  8.43104036727980E+00
 cg2d: Sum(rhs),rhsMax =  -1.02899214482477E-07  8.42590597581903E+00
 cg2d: Sum(rhs),rhsMax =  -1.02960150627496E-07  8.42096861540595E+00
 cg2d: Sum(rhs),rhsMax =  -1.03018727770632E-07  8.41624063283881E+00
 cg2d: Sum(rhs),rhsMax =  -1.03074462742825E-07  8.41173099284368E+00
 cg2d: Sum(rhs),rhsMax =  -1.03127582917750E-07  8.40744522364360E+00
 cg2d: Sum(rhs),rhsMax =  -1.03177704602331E-07  8.40338548638234E+00
 cg2d: Sum(rhs),rhsMax =  -1.03225289649345E-07  8.39955071057647E+00
 cg2d: Sum(rhs),rhsMax =  -1.03270444640202E-07  8.39593686353065E+00
 cg2d: Sum(rhs),rhsMax =  -1.03312800092681E-07  8.39253726007720E+00
 cg2d: Sum(rhs),rhsMax =  -1.03352554958747E-07  8.38934286490718E+00
 cg2d: Sum(rhs),rhsMax =  -1.03389886874083E-07  8.38634267692018E+00
 cg2d: Sum(rhs),rhsMax =  -1.03425186637196E-07  8.38352418466840E+00
 cg2d: Sum(rhs),rhsMax =  -1.03458575040349E-07  8.38087384792736E+00
 cg2d: Sum(rhs),rhsMax =  -1.03489654179612E-07  8.37837764295235E+00
 cg2d: Sum(rhs),rhsMax =  -1.03519347760539E-07  8.37602165023152E+00
 cg2d: Sum(rhs),rhsMax =  -1.03547364460610E-07  8.37379265495454E+00
 cg2d: Sum(rhs),rhsMax =  -1.03573896126363E-07  8.37167859305842E+00
 cg2d: Sum(rhs),rhsMax =  -1.03599155920620E-07  8.36966841617237E+00
 cg2d: Sum(rhs),rhsMax =  -1.03623357006200E-07  8.36775262363169E+00
 cg2d: Sum(rhs),rhsMax =  -1.03646584648232E-07  8.36592322530019E+00
 cg2d: Sum(rhs),rhsMax =  -1.03668426731929E-07  8.36417370361670E+00
 cg2d: Sum(rhs),rhsMax =  -1.03689806962848E-07  8.36249893566327E+00
 cg2d: Sum(rhs),rhsMax =  -1.03710164012227E-07  8.36089512198643E+00
 cg2d: Sum(rhs),rhsMax =  -1.03729064448999E-07  8.35935972193128E+00
 cg2d: Sum(rhs),rhsMax =  -1.03747986202052E-07  8.35789132052859E+00
 cg2d: Sum(rhs),rhsMax =  -1.03765373182796E-07  8.35648953984663E+00
 cg2d: Sum(rhs),rhsMax =  -1.03782369365035E-07  8.35515503666620E+00
 cg2d: Sum(rhs),rhsMax =  -1.03798733164240E-07  8.35388959337713E+00
 cg2d: Sum(rhs),rhsMax =  -1.03813491136862E-07  8.35269612989214E+00
 cg2d: Sum(rhs),rhsMax =  -1.03827638042731E-07  8.35157865319166E+00
 cg2d: Sum(rhs),rhsMax =  -1.03841280463257E-07  8.35054220321588E+00
 cg2d: Sum(rhs),rhsMax =  -1.03853331268056E-07  8.34959282244478E+00
 cg2d: Sum(rhs),rhsMax =  -1.03864024936229E-07  8.34873757212784E+00
 cg2d: Sum(rhs),rhsMax =  -1.03873794898846E-07  8.34798443944571E+00
 cg2d: Sum(rhs),rhsMax =  -1.03881951929452E-07  8.34734205444848E+00
 cg2d: Sum(rhs),rhsMax =  -1.03888730507151E-07  8.34681927427749E+00
 cg2d: Sum(rhs),rhsMax =  -1.03893782466002E-07  8.34642479662444E+00
 cg2d: Sum(rhs),rhsMax =  -1.03896695691219E-07  8.34616690162161E+00
 cg2d: Sum(rhs),rhsMax =  -1.03898251779810E-07  8.34605328416144E+00
 cg2d: Sum(rhs),rhsMax =  -1.03897747294468E-07  8.34609086201575E+00
 cg2d: Sum(rhs),rhsMax =  -1.03895416714295E-07  8.34628560159372E+00
 cg2d: Sum(rhs),rhsMax =  -1.03891132141598E-07  8.34664238294981E+00
 cg2d: Sum(rhs),rhsMax =  -1.03884730151549E-07  8.34716488141953E+00
 cg2d: Sum(rhs),rhsMax =  -1.03876232060429E-07  8.34785544920597E+00
 cg2d: Sum(rhs),rhsMax =  -1.03865339440290E-07  8.34871504733891E+00
 cg2d: Sum(rhs),rhsMax =  -1.03852393351644E-07  8.34974320296400E+00
 cg2d: Sum(rhs),rhsMax =  -1.03837578535604E-07  8.35093803633076E+00
 cg2d: Sum(rhs),rhsMax =  -1.03820866570459E-07  8.35229628921908E+00
 cg2d: Sum(rhs),rhsMax =  -1.03801575335183E-07  8.35381348895399E+00
 cg2d: Sum(rhs),rhsMax =  -1.03780770643880E-07  8.35548405560547E+00
 cg2d: Sum(rhs),rhsMax =  -1.03758168279455E-07  8.35730145035772E+00
 cg2d: Sum(rhs),rhsMax =  -1.03734052459004E-07  8.35925834161856E+00
 cg2d: Sum(rhs),rhsMax =  -1.03707641585515E-07  8.36134677020027E+00
 cg2d: Sum(rhs),rhsMax =  -1.03680264373907E-07  8.36355833544679E+00
 EXTERNAL_FIELDS_LOAD, it=   3600630 : Reading new data, i0,i1=   11   12 (prev=   10   11 )
 DIC_FIELDS_LOAD, it=   3600630 : Reading new data, i0,i1=   11   12 (prev=   10   11 )
 cg2d: Sum(rhs),rhsMax =  -1.03651167648877E-07  8.36588437297216E+00
 cg2d: Sum(rhs),rhsMax =  -1.03620983793462E-07  8.36829873825493E+00
 cg2d: Sum(rhs),rhsMax =  -1.03590167555012E-07  8.37078098256463E+00
 cg2d: Sum(rhs),rhsMax =  -1.03558832620365E-07  8.37331076990736E+00
 cg2d: Sum(rhs),rhsMax =  -1.03526986094948E-07  8.37586828475342E+00
 cg2d: Sum(rhs),rhsMax =  -1.03494969039275E-07  8.37843651347270E+00
 cg2d: Sum(rhs),rhsMax =  -1.03462959089029E-07  8.38100058596186E+00
 cg2d: Sum(rhs),rhsMax =  -1.03431759157502E-07  8.38354800119352E+00
 cg2d: Sum(rhs),rhsMax =  -1.03400431328282E-07  8.38606907281455E+00
 cg2d: Sum(rhs),rhsMax =  -1.03369536930131E-07  8.38855705740912E+00
 cg2d: Sum(rhs),rhsMax =  -1.03339182544460E-07  8.39100818777902E+00
 cg2d: Sum(rhs),rhsMax =  -1.03309091059600E-07  8.39342162927294E+00
 cg2d: Sum(rhs),rhsMax =  -1.03279326424399E-07  8.39579937673915E+00
 cg2d: Sum(rhs),rhsMax =  -1.03250158645096E-07  8.39814606298476E+00
 cg2d: Sum(rhs),rhsMax =  -1.03221587721691E-07  8.40046867037939E+00
 cg2d: Sum(rhs),rhsMax =  -1.03192640210636E-07  8.40277617859981E+00
 cg2d: Sum(rhs),rhsMax =  -1.03164317977189E-07  8.40507915533000E+00
 cg2d: Sum(rhs),rhsMax =  -1.03135583628955E-07  8.40738929078001E+00
 cg2d: Sum(rhs),rhsMax =  -1.03106465587643E-07  8.40971893982490E+00
 cg2d: Sum(rhs),rhsMax =  -1.03077603341717E-07  8.41208069021930E+00
 cg2d: Sum(rhs),rhsMax =  -1.03047760546815E-07  8.41448664736628E+00
 cg2d: Sum(rhs),rhsMax =  -1.03017328001442E-07  8.41694808963461E+00
 cg2d: Sum(rhs),rhsMax =  -1.02985850958248E-07  8.41947641344255E+00
 cg2d: Sum(rhs),rhsMax =  -1.02953762848301E-07  8.42209465677943E+00
 cg2d: Sum(rhs),rhsMax =  -1.02920779454507E-07  8.42481840011152E+00
 cg2d: Sum(rhs),rhsMax =  -1.02885756803062E-07  8.42766143831664E+00
 cg2d: Sum(rhs),rhsMax =  -1.02849760708068E-07  8.43063562227923E+00
 cg2d: Sum(rhs),rhsMax =  -1.02811505087175E-07  8.43375048923612E+00
 cg2d: Sum(rhs),rhsMax =  -1.02771743115682E-07  8.43701312183894E+00
 cg2d: Sum(rhs),rhsMax =  -1.02730268736195E-07  8.44042805498092E+00
 cg2d: Sum(rhs),rhsMax =  -1.02686364300553E-07  8.44399728026233E+00
 cg2d: Sum(rhs),rhsMax =  -1.02641237731405E-07  8.44772028674299E+00
 cg2d: Sum(rhs),rhsMax =  -1.02594057693750E-07  8.45159419183708E+00
 cg2d: Sum(rhs),rhsMax =  -1.02545079982974E-07  8.45561389463918E+00
 cg2d: Sum(rhs),rhsMax =  -1.02494418285914E-07  8.45977229544668E+00
 cg2d: Sum(rhs),rhsMax =  -1.02442626825905E-07  8.46406043486096E+00
 cg2d: Sum(rhs),rhsMax =  -1.02389186906748E-07  8.46846786249842E+00
 cg2d: Sum(rhs),rhsMax =  -1.02334411167249E-07  8.47298294092153E+00
 cg2d: Sum(rhs),rhsMax =  -1.02278569613645E-07  8.47759310010859E+00
 cg2d: Sum(rhs),rhsMax =  -1.02221783038203E-07  8.48228511495217E+00
 cg2d: Sum(rhs),rhsMax =  -1.02164435134000E-07  8.48704540520819E+00
 cg2d: Sum(rhs),rhsMax =  -1.02106639587873E-07  8.49186038102640E+00
 cg2d: Sum(rhs),rhsMax =  -1.02048161920720E-07  8.49671683330553E+00
 cg2d: Sum(rhs),rhsMax =  -1.01989222400789E-07  8.50160229731839E+00
 cg2d: Sum(rhs),rhsMax =  -1.01930119456028E-07  8.50650541756349E+00
 cg2d: Sum(rhs),rhsMax =  -1.01871734159431E-07  8.51141606286167E+00
 cg2d: Sum(rhs),rhsMax =  -1.01813114383731E-07  8.51632550458549E+00
 cg2d: Sum(rhs),rhsMax =  -1.01754352499484E-07  8.52122658728227E+00
 cg2d: Sum(rhs),rhsMax =  -1.01695938781177E-07  8.52611387363114E+00
 cg2d: Sum(rhs),rhsMax =  -1.01637908755947E-07  8.53098375482528E+00
 cg2d: Sum(rhs),rhsMax =  -1.01580091893538E-07  8.53583450654913E+00
 cg2d: Sum(rhs),rhsMax =  -1.01522516615660E-07  8.54066629803099E+00
 cg2d: Sum(rhs),rhsMax =  -1.01465325030858E-07  8.54548114840508E+00
 cg2d: Sum(rhs),rhsMax =  -1.01408510033707E-07  8.55028281355603E+00
 cg2d: Sum(rhs),rhsMax =  -1.01351844250530E-07  8.55507663782142E+00
 cg2d: Sum(rhs),rhsMax =  -1.01294901355686E-07  8.55986938569464E+00
 cg2d: Sum(rhs),rhsMax =  -1.01238242677937E-07  8.56466907941720E+00
 cg2d: Sum(rhs),rhsMax =  -1.01181711897880E-07  8.56948481849350E+00
 cg2d: Sum(rhs),rhsMax =  -1.01124427942523E-07  8.57432655386490E+00
 cg2d: Sum(rhs),rhsMax =  -1.01066994773191E-07  8.57920482306538E+00
 EXTERNAL_FIELDS_LOAD, it=   3600690 : Reading new data, i0,i1=   12    1 (prev=   11   12 )
 DIC_FIELDS_LOAD, it=   3600690 : Reading new data, i0,i1=   12    1 (prev=   11   12 )
 cg2d: Sum(rhs),rhsMax =  -1.01009099751082E-07  8.58413045456863E+00
 cg2d: Sum(rhs),rhsMax =  -1.00950970249869E-07  8.58908772075261E+00
 cg2d: Sum(rhs),rhsMax =  -1.00892201260194E-07  8.59407113784658E+00
 cg2d: Sum(rhs),rhsMax =  -1.00833979388426E-07  8.59907533504329E+00
 cg2d: Sum(rhs),rhsMax =  -1.00775366718153E-07  8.60409527812640E+00
 cg2d: Sum(rhs),rhsMax =  -1.00716533779632E-07  8.60912639608676E+00
 cg2d: Sum(rhs),rhsMax =  -1.00657807422522E-07  8.61416467727663E+00
 cg2d: Sum(rhs),rhsMax =  -1.00599194752249E-07  8.61920670304104E+00
 cg2d: Sum(rhs),rhsMax =  -1.00540219705181E-07  8.62424959025954E+00
 cg2d: Sum(rhs),rhsMax =  -1.00481713616318E-07  8.62929084710763E+00
 cg2d: Sum(rhs),rhsMax =  -1.00423278581729E-07  8.63432823431656E+00
 cg2d: Sum(rhs),rhsMax =  -1.00365085131671E-07  8.63935967110789E+00
 cg2d: Sum(rhs),rhsMax =  -1.00306984052168E-07  8.64438326330631E+00
 cg2d: Sum(rhs),rhsMax =  -1.00248698231553E-07  8.64939736363611E+00
 cg2d: Sum(rhs),rhsMax =  -1.00191144269957E-07  8.65440069908248E+00
 cg2d: Sum(rhs),rhsMax =  -1.00133568992078E-07  8.65939260929048E+00
 cg2d: Sum(rhs),rhsMax =  -1.00076100295610E-07  8.66437312037654E+00
 cg2d: Sum(rhs),rhsMax =  -1.00019036608501E-07  8.66934290835576E+00
 cg2d: Sum(rhs),rhsMax =  -9.99617597585711E-08  8.67430225124478E+00
 cg2d: Sum(rhs),rhsMax =  -9.99047102823170E-08  8.67925494682890E+00
 cg2d: Sum(rhs),rhsMax =  -9.98482363456787E-08  8.68420608713978E+00
 cg2d: Sum(rhs),rhsMax =  -9.97913716105359E-08  8.68916081980566E+00
 cg2d: Sum(rhs),rhsMax =  -9.97343434505638E-08  8.69412416784580E+00
 cg2d: Sum(rhs),rhsMax =  -9.96773295014464E-08  8.69910085245627E+00
 cg2d: Sum(rhs),rhsMax =  -9.96202871306195E-08  8.70409517445086E+00
 cg2d: Sum(rhs),rhsMax =  -9.95629250155616E-08  8.70911095741398E+00
 cg2d: Sum(rhs),rhsMax =  -9.95059110664442E-08  8.71415148969223E+00
 cg2d: Sum(rhs),rhsMax =  -9.94480160443345E-08  8.71921930590513E+00
 cg2d: Sum(rhs),rhsMax =  -9.93902702361993E-08  8.72431607432102E+00
 cg2d: Sum(rhs),rhsMax =  -9.93317215147727E-08  8.72944261226047E+00
 cg2d: Sum(rhs),rhsMax =  -9.92735280647139E-08  8.73459893266904E+00
 cg2d: Sum(rhs),rhsMax =  -9.92147448641845E-08  8.73978430818157E+00
 cg2d: Sum(rhs),rhsMax =  -9.91560966667748E-08  8.74499735837366E+00
 cg2d: Sum(rhs),rhsMax =  -9.90966526615011E-08  8.75023614706347E+00
 cg2d: Sum(rhs),rhsMax =  -9.90366970654577E-08  8.75549829188909E+00
 cg2d: Sum(rhs),rhsMax =  -9.89772743764661E-08  8.76078107848702E+00
 cg2d: Sum(rhs),rhsMax =  -9.89177024735000E-08  8.76608155580086E+00
 cg2d: Sum(rhs),rhsMax =  -9.88579742511320E-08  8.77139664107964E+00
 cg2d: Sum(rhs),rhsMax =  -9.87977060162848E-08  8.77672320795606E+00
 cg2d: Sum(rhs),rhsMax =  -9.87382264838743E-08  8.78205816635757E+00
(PID.TID 0000.0001) Did not write pickup because writePickupAtEnd = FALSE
 DIC_SURFFORCING_INIT, it=   3600000 : Reading new data, i0,i1=   12    1
 QQ: pCO2 approximation method
 QQ first guess pH 8.2869849781645275,  7.129213793781922,  34.1535348423009,  2.0282,  5.43799999999999991E-4,  8.08490416966378689E-3,  2.3086000000000002
(PID.TID 0000.0001) // =======================================================
(PID.TID 0000.0001) // Model current state
(PID.TID 0000.0001) // =======================================================
(PID.TID 0000.0001) 
 EXTERNAL_FIELDS_LOAD, it=   3600000 : Reading new data, i0,i1=   12    1 (prev=   12    0 )
 DIC_FIELDS_LOAD, it=   3600000 : Reading new data, i0,i1=   12    1 (prev=   12    0 )
 cg2d: Sum(rhs),rhsMax =  -9.92433868418630E-08  8.73439671821315E+00
 cg2d: Sum(rhs),rhsMax =  -9.91844260056496E-08  8.73957958587058E+00
 cg2d: Sum(rhs),rhsMax =  -9.91252449011881E-08  8.74478969091806E+00
 cg2d: Sum(rhs),rhsMax =  -9.90665185440776E-08  8.75002495477880E+00
 cg2d: Sum(rhs),rhsMax =  -9.90068542705558E-08  8.75528284057604E+00
 cg2d: Sum(rhs),rhsMax =  -9.89473534218632E-08  8.76056047500076E+00
 cg2d: Sum(rhs),rhsMax =  -9.88878241514612E-08  8.76585475900637E+00
 cg2d: Sum(rhs),rhsMax =  -9.88279893476829E-08  8.77116249138180E+00
 cg2d: Sum(rhs),rhsMax =  -9.87682469144602E-08  8.77648047471154E+00
 cg2d: Sum(rhs),rhsMax =  -9.87087602766223E-08  8.78180560756084E+00
 cg2d: Sum(rhs),rhsMax =  -9.86489112619893E-08  8.78713494778165E+00
 cg2d: Sum(rhs),rhsMax =  -9.85891404070571E-08  8.79246575399440E+00
 cg2d: Sum(rhs),rhsMax =  -9.85293340249882E-08  8.79779549299699E+00
 cg2d: Sum(rhs),rhsMax =  -9.84700747608258E-08  8.80312181092759E+00
 cg2d: Sum(rhs),rhsMax =  -9.84108581292276E-08  8.80844249631459E+00
 cg2d: Sum(rhs),rhsMax =  -9.83516486030567E-08  8.81375547068360E+00
 cg2d: Sum(rhs),rhsMax =  -9.82926522397065E-08  8.81905885446822E+00
 cg2d: Sum(rhs),rhsMax =  -9.82337553523394E-08  8.82435106608147E+00
 cg2d: Sum(rhs),rhsMax =  -9.81751568929212E-08  8.82963093738125E+00
 cg2d: Sum(rhs),rhsMax =  -9.81166650149135E-08  8.83489782452132E+00
 cg2d: Sum(rhs),rhsMax =  -9.80585213028462E-08  8.84015168145881E+00
 cg2d: Sum(rhs),rhsMax =  -9.80007470730015E-08  8.84539306572338E+00
 cg2d: Sum(rhs),rhsMax =  -9.79429586323022E-08  8.85062306296846E+00
 cg2d: Sum(rhs),rhsMax =  -9.78853904598509E-08  8.85584316140559E+00
 cg2d: Sum(rhs),rhsMax =  -9.78280425556477E-08  8.86105508303604E+00
 cg2d: Sum(rhs),rhsMax =  -9.77709291305473E-08  8.86626061391844E+00
 cg2d: Sum(rhs),rhsMax =  -9.77132472712583E-08  8.87146147123075E+00
 cg2d: Sum(rhs),rhsMax =  -9.76563327981239E-08  8.87665923110881E+00
 cg2d: Sum(rhs),rhsMax =  -9.75990843699037E-08  8.88185530584736E+00
 cg2d: Sum(rhs),rhsMax =  -9.75420704207863E-08  8.88705095973601E+00
 EXTERNAL_FIELDS_LOAD, it=   3600030 : Reading new data, i0,i1=    1    2 (prev=   12    1 )
 DIC_FIELDS_LOAD, it=   3600030 : Reading new data, i0,i1=    1    2 (prev=   12    1 )
 cg2d: Sum(rhs),rhsMax =  -9.74853406887632E-08  8.89224735691429E+00
 cg2d: Sum(rhs),rhsMax =  -9.74287814869967E-08  8.89742706375180E+00
 cg2d: Sum(rhs),rhsMax =  -9.73723857100595E-08  8.90258000132907E+00
 cg2d: Sum(rhs),rhsMax =  -9.73164659967551E-08  8.90769672951691E+00
 cg2d: Sum(rhs),rhsMax =  -9.72612284044772E-08  8.91276878246959E+00
 cg2d: Sum(rhs),rhsMax =  -9.72070637317302E-08  8.91778889429735E+00
 cg2d: Sum(rhs),rhsMax =  -9.71530482729577E-08  8.92275113682099E+00
 cg2d: Sum(rhs),rhsMax =  -9.70993241367069E-08  8.92765100404361E+00
 cg2d: Sum(rhs),rhsMax =  -9.70471916161841E-08  8.93248545016401E+00
 cg2d: Sum(rhs),rhsMax =  -9.69955280538670E-08  8.93725287491615E+00
 cg2d: Sum(rhs),rhsMax =  -9.69441273923621E-08  8.94195305183593E+00
 cg2d: Sum(rhs),rhsMax =  -9.68941833434656E-08  8.94658701582531E+00
 cg2d: Sum(rhs),rhsMax =  -9.68450208915783E-08  8.95115692214719E+00
 cg2d: Sum(rhs),rhsMax =  -9.67962705544778E-08  8.95566589123099E+00
 cg2d: Sum(rhs),rhsMax =  -9.67482165492584E-08  8.96011786358850E+00
 cg2d: Sum(rhs),rhsMax =  -9.67008020325011E-08  8.96451747891563E+00
 cg2d: Sum(rhs),rhsMax =  -9.66539346336504E-08  8.96886998187158E+00
 cg2d: Sum(rhs),rhsMax =  -9.66078843589457E-08  8.97318115409823E+00
 cg2d: Sum(rhs),rhsMax =  -9.65621254067628E-08  8.97745726495199E+00
 cg2d: Sum(rhs),rhsMax =  -9.65159685506478E-08  8.98170502198163E+00
 cg2d: Sum(rhs),rhsMax =  -9.64709272466280E-08  8.98593151889555E+00
 cg2d: Sum(rhs),rhsMax =  -9.64258006774799E-08  8.99014423145949E+00
 cg2d: Sum(rhs),rhsMax =  -9.63806954246138E-08  8.99435085408351E+00
 cg2d: Sum(rhs),rhsMax =  -9.63354978011921E-08  8.99855914272681E+00
 cg2d: Sum(rhs),rhsMax =  -9.62904493917449E-08  9.00277662786875E+00
 cg2d: Sum(rhs),rhsMax =  -9.62449746566563E-08  9.00700998220796E+00
 cg2d: Sum(rhs),rhsMax =  -9.61997557169525E-08  9.01126574761483E+00
 cg2d: Sum(rhs),rhsMax =  -9.61540180810516E-08  9.01555039729210E+00
 cg2d: Sum(rhs),rhsMax =  -9.61077120109621E-08  9.01986971435378E+00
 cg2d: Sum(rhs),rhsMax =  -9.60613775191632E-08  9.02422880815445E+00
 cg2d: Sum(rhs),rhsMax =  -9.60143182737738E-08  9.02863205182447E+00
 cg2d: Sum(rhs),rhsMax =  -9.59668398081703E-08  9.03308295193821E+00
 cg2d: Sum(rhs),rhsMax =  -9.59189492277801E-08  9.03758400719746E+00
 cg2d: Sum(rhs),rhsMax =  -9.58706323217484E-08  9.04213663854453E+00
 cg2d: Sum(rhs),rhsMax =  -9.58215622404168E-08  9.04674109185253E+00
 cg2d: Sum(rhs),rhsMax =  -9.57721724148541E-08  9.05139640217902E+00
 cg2d: Sum(rhs),rhsMax =  -9.57223775799321E-08  9.05610040614876E+00
 cg2d: Sum(rhs),rhsMax =  -9.56718224642827E-08  9.06084979109159E+00
 cg2d: Sum(rhs),rhsMax =  -9.56211039238042E-08  9.06564017672268E+00
 cg2d: Sum(rhs),rhsMax =  -9.55700798499493E-08  9.07046622792088E+00
 cg2d: Sum(rhs),rhsMax =  -9.55189918272481E-08  9.07532179655311E+00
 cg2d: Sum(rhs),rhsMax =  -9.54672145780933E-08  9.08020008054443E+00
 cg2d: Sum(rhs),rhsMax =  -9.54156860188959E-08  9.08509379067778E+00
 cg2d: Sum(rhs),rhsMax =  -9.53640864054250E-08  9.08999532389517E+00
 cg2d: Sum(rhs),rhsMax =  -9.53120391500306E-08  9.09489685062687E+00
 cg2d: Sum(rhs),rhsMax =  -9.52604963799786E-08  9.09979078670731E+00
 cg2d: Sum(rhs),rhsMax =  -9.52091738781746E-08  9.10466952325132E+00
 cg2d: Sum(rhs),rhsMax =  -9.51581995423112E-08  9.10952586151125E+00
 cg2d: Sum(rhs),rhsMax =  -9.51075378452515E-08  9.11435305322486E+00
 cg2d: Sum(rhs),rhsMax =  -9.50568974644739E-08  9.11914489544444E+00
 cg2d: Sum(rhs),rhsMax =  -9.50070173644235E-08  9.12389583482653E+00
 cg2d: Sum(rhs),rhsMax =  -9.49582670273230E-08  9.12860106773695E+00
 cg2d: Sum(rhs),rhsMax =  -9.49094669522310E-08  9.13325671324743E+00
 cg2d: Sum(rhs),rhsMax =  -9.48612637330370E-08  9.13785989332165E+00
 cg2d: Sum(rhs),rhsMax =  -9.48139060596986E-08  9.14240888612431E+00
 cg2d: Sum(rhs),rhsMax =  -9.47671381368309E-08  9.14690322805975E+00
 cg2d: Sum(rhs),rhsMax =  -9.47210025969980E-08  9.15134376400067E+00
 cg2d: Sum(rhs),rhsMax =  -9.46753857533622E-08  9.15573262291172E+00
 cg2d: Sum(rhs),rhsMax =  -9.46305078741716E-08  9.16007311317651E+00
 cg2d: Sum(rhs),rhsMax =  -9.45855020972886E-08  9.16436954661381E+00
 EXTERNAL_FIELDS_LOAD, it=   3600090 : Reading new data, i0,i1=    2    3 (prev=    1    2 )
 DIC_FIELDS_LOAD, it=   3600090 : Reading new data, i0,i1=    2    3 (prev=    1    2 )
 cg2d: Sum(rhs),rhsMax =  -9.45416047670733E-08  9.16862700792054E+00
 cg2d: Sum(rhs),rhsMax =  -9.44977784911316E-08  9.17286965792043E+00
 cg2d: Sum(rhs),rhsMax =  -9.44538882663437E-08  9.17711460232796E+00
 cg2d: Sum(rhs),rhsMax =  -9.44097777733077E-08  9.18137827264839E+00
 cg2d: Sum(rhs),rhsMax =  -9.43655606988614E-08  9.18567586102450E+00
 cg2d: Sum(rhs),rhsMax =  -9.43208533499273E-08  9.19002086507332E+00
 cg2d: Sum(rhs),rhsMax =  -9.42755065125311E-08  9.19442473147613E+00
 cg2d: Sum(rhs),rhsMax =  -9.42294988703907E-08  9.19889660310093E+00
 cg2d: Sum(rhs),rhsMax =  -9.41831217460276E-08  9.20344317156002E+00
 cg2d: Sum(rhs),rhsMax =  -9.41357711781166E-08  9.20806863385625E+00
 cg2d: Sum(rhs),rhsMax =  -9.40875679589226E-08  9.21277472508850E+00
 cg2d: Sum(rhs),rhsMax =  -9.40387323566938E-08  9.21756082935263E+00
 cg2d: Sum(rhs),rhsMax =  -9.39891506845925E-08  9.22242415169496E+00
 cg2d: Sum(rhs),rhsMax =  -9.39387589937724E-08  9.22735992735964E+00
 cg2d: Sum(rhs),rhsMax =  -9.38874578082505E-08  9.23236166048178E+00
 cg2d: Sum(rhs),rhsMax =  -9.38360713576003E-08  9.23742136926884E+00
 cg2d: Sum(rhs),rhsMax =  -9.37847204340869E-08  9.24252982829311E+00
 cg2d: Sum(rhs),rhsMax =  -9.37326518624104E-08  9.24767682825910E+00
 cg2d: Sum(rhs),rhsMax =  -9.36799651185538E-08  9.25285135651627E+00
 cg2d: Sum(rhs),rhsMax =  -9.36278468088858E-08  9.25804181556396E+00
 cg2d: Sum(rhs),rhsMax =  -9.35753803332773E-08  9.26323624437734E+00
 cg2d: Sum(rhs),rhsMax =  -9.35233543941649E-08  9.26842252954541E+00
 cg2d: Sum(rhs),rhsMax =  -9.34712076627875E-08  9.27358855590945E+00
 cg2d: Sum(rhs),rhsMax =  -9.34198851609835E-08  9.27872221865362E+00
 cg2d: Sum(rhs),rhsMax =  -9.33687331894362E-08  9.28381269175841E+00
 cg2d: Sum(rhs),rhsMax =  -9.33183130769066E-08  9.28884990364347E+00
 cg2d: Sum(rhs),rhsMax =  -9.32684542931383E-08  9.29382460831193E+00
 cg2d: Sum(rhs),rhsMax =  -9.32194410552256E-08  9.29872876125425E+00
 cg2d: Sum(rhs),rhsMax =  -9.31711383600486E-08  9.30355578941157E+00
 cg2d: Sum(rhs),rhsMax =  -9.31240364820951E-08  9.30830071441787E+00
 cg2d: Sum(rhs),rhsMax =  -9.30773893514925E-08  9.31296016039586E+00
 cg2d: Sum(rhs),rhsMax =  -9.30318719838397E-08  9.31753230345820E+00
 cg2d: Sum(rhs),rhsMax =  -9.29872783217434E-08  9.32201677457960E+00
 cg2d: Sum(rhs),rhsMax =  -9.29437931063148E-08  9.32641453687162E+00
 cg2d: Sum(rhs),rhsMax =  -9.29007910599466E-08  9.33072777407330E+00
 cg2d: Sum(rhs),rhsMax =  -9.28590253579387E-08  9.33495977832897E+00
 cg2d: Sum(rhs),rhsMax =  -9.28177001924269E-08  9.33911483571782E+00
 cg2d: Sum(rhs),rhsMax =  -9.27770358316593E-08  9.34319809772528E+00
 cg2d: Sum(rhs),rhsMax =  -9.27373591252945E-08  9.34721542637213E+00
 cg2d: Sum(rhs),rhsMax =  -9.26982295368362E-08  9.35117321728378E+00
 cg2d: Sum(rhs),rhsMax =  -9.26594978523099E-08  9.35507820898651E+00
 cg2d: Sum(rhs),rhsMax =  -9.26212777585533E-08  9.35893728101038E+00
 cg2d: Sum(rhs),rhsMax =  -9.25836900478316E-08  9.36275724876052E+00
 cg2d: Sum(rhs),rhsMax =  -9.25467347201447E-08  9.36654466497940E+00
 cg2d: Sum(rhs),rhsMax =  -9.25093388559617E-08  9.37030563739009E+00
 cg2d: Sum(rhs),rhsMax =  -9.24723693174201E-08  9.37404566529748E+00
 cg2d: Sum(rhs),rhsMax =  -9.24358261045199E-08  9.37776950669782E+00
 cg2d: Sum(rhs),rhsMax =  -9.23998015878169E-08  9.38148107939576E+00
 cg2d: Sum(rhs),rhsMax =  -9.23633649563271E-08  9.38518340080342E+00
 cg2d: Sum(rhs),rhsMax =  -9.23271628039402E-08  9.38887856431341E+00
 cg2d: Sum(rhs),rhsMax =  -9.22907545941598E-08  9.39256775253961E+00
 cg2d: Sum(rhs),rhsMax =  -9.22549361348501E-08  9.39625127829926E+00
 cg2d: Sum(rhs),rhsMax =  -9.22186487173349E-08  9.39992865313115E+00
 cg2d: Sum(rhs),rhsMax =  -9.21831713185384E-08  9.40359867110262E+00
 cg2d: Sum(rhs),rhsMax =  -9.21473457538013E-08  9.40725949891390E+00
 cg2d: Sum(rhs),rhsMax =  -9.21119038821416E-08  9.41090875978471E+00
 cg2d: Sum(rhs),rhsMax =  -9.20763412182168E-08  9.41454361858659E+00
 cg2d: Sum(rhs),rhsMax =  -9.20410343496769E-08  9.41816086827301E+00
 cg2d: Sum(rhs),rhsMax =  -9.20060685416502E-08  9.42175701532902E+00
 cg2d: Sum(rhs),rhsMax =  -9.19711879987517E-08  9.42532836100955E+00
 EXTERNAL_FIELDS_LOAD, it=   3600150 : Reading new data, i0,i1=    3    4 (prev=    2    3 )
 DIC_FIELDS_LOAD, it=   3600150 : Reading new data, i0,i1=    3    4 (prev=    2    3 )
 cg2d: Sum(rhs),rhsMax =  -9.19367622032041E-08  9.42887108055882E+00
 cg2d: Sum(rhs),rhsMax =  -9.19030327395376E-08  9.43235832256638E+00
 cg2d: Sum(rhs),rhsMax =  -9.18696727580937E-08  9.43577294710938E+00
 cg2d: Sum(rhs),rhsMax =  -9.18375349101552E-08  9.43909901719340E+00
 cg2d: Sum(rhs),rhsMax =  -9.18056457521743E-08  9.44232226351574E+00
 cg2d: Sum(rhs),rhsMax =  -9.17754618967592E-08  9.44543045713848E+00
 cg2d: Sum(rhs),rhsMax =  -9.17468696570722E-08  9.44841368652191E+00
 cg2d: Sum(rhs),rhsMax =  -9.17188671678559E-08  9.45126453300903E+00
 cg2d: Sum(rhs),rhsMax =  -9.16929749905648E-08  9.45397814472091E+00
 cg2d: Sum(rhs),rhsMax =  -9.16680278351123E-08  9.45655223330268E+00
 cg2d: Sum(rhs),rhsMax =  -9.16445941356869E-08  9.45898700078271E+00
 cg2d: Sum(rhs),rhsMax =  -9.16223754643397E-08  9.46128500172268E+00
 cg2d: Sum(rhs),rhsMax =  -9.16011231311131E-08  9.46345095767279E+00
 cg2d: Sum(rhs),rhsMax =  -9.15811568802383E-08  9.46549153513779E+00
 cg2d: Sum(rhs),rhsMax =  -9.15625619768434E-08  9.46741508859273E+00
 cg2d: Sum(rhs),rhsMax =  -9.15451252581079E-08  9.46923137659912E+00
 cg2d: Sum(rhs),rhsMax =  -9.15285980340741E-08  9.47095124324780E+00
 cg2d: Sum(rhs),rhsMax =  -9.15126108225195E-08  9.47258633929544E+00
 cg2d: Sum(rhs),rhsMax =  -9.14974762622478E-08  9.47414881667898E+00
 cg2d: Sum(rhs),rhsMax =  -9.14831588261222E-08  9.47565102854520E+00
 cg2d: Sum(rhs),rhsMax =  -9.14691185016636E-08  9.47710524161440E+00
 cg2d: Sum(rhs),rhsMax =  -9.14552913400257E-08  9.47852337330871E+00
 cg2d: Sum(rhs),rhsMax =  -9.14417910280463E-08  9.47991675839448E+00
 cg2d: Sum(rhs),rhsMax =  -9.14288023068366E-08  9.48129594936036E+00
 cg2d: Sum(rhs),rhsMax =  -9.14153162057119E-08  9.48267055268677E+00
 cg2d: Sum(rhs),rhsMax =  -9.14016951014673E-08  9.48404910672501E+00
 cg2d: Sum(rhs),rhsMax =  -9.13883866360266E-08  9.48543898881096E+00
 cg2d: Sum(rhs),rhsMax =  -9.13749147457565E-08  9.48684634838855E+00
 cg2d: Sum(rhs),rhsMax =  -9.13611231112554E-08  9.48827608016959E+00
 cg2d: Sum(rhs),rhsMax =  -9.13465854068818E-08  9.48973182637241E+00
 cg2d: Sum(rhs),rhsMax =  -9.13324456064402E-08  9.49121598932757E+00
 cg2d: Sum(rhs),rhsMax =  -9.13176805283911E-08  9.49272976482376E+00
 cg2d: Sum(rhs),rhsMax =  -9.13029793991882E-08  9.49427318407705E+00
 cg2d: Sum(rhs),rhsMax =  -9.12876600978052E-08  9.49584517202971E+00
 cg2d: Sum(rhs),rhsMax =  -9.12722768475760E-08  9.49744362566448E+00
 cg2d: Sum(rhs),rhsMax =  -9.12563962174318E-08  9.49906550905340E+00
 cg2d: Sum(rhs),rhsMax =  -9.12406292741252E-08  9.50070696299551E+00
 cg2d: Sum(rhs),rhsMax =  -9.12245567974423E-08  9.50236342680402E+00
 cg2d: Sum(rhs),rhsMax =  -9.12086122184519E-08  9.50402976802920E+00
 cg2d: Sum(rhs),rhsMax =  -9.11920636781360E-08  9.50570042893596E+00
 cg2d: Sum(rhs),rhsMax =  -9.11760835720088E-08  9.50736956748404E+00
 cg2d: Sum(rhs),rhsMax =  -9.11599897790438E-08  9.50903122489705E+00
 cg2d: Sum(rhs),rhsMax =  -9.11439812512072E-08  9.51067944299842E+00
 cg2d: Sum(rhs),rhsMax =  -9.11286619498242E-08  9.51230836255520E+00
 cg2d: Sum(rhs),rhsMax =  -9.11128452685261E-08  9.51391232343393E+00
 cg2d: Sum(rhs),rhsMax =  -9.10978172896648E-08  9.51548598638282E+00
 cg2d: Sum(rhs),rhsMax =  -9.10825903588375E-08  9.51702443978652E+00
 cg2d: Sum(rhs),rhsMax =  -9.10679744947629E-08  9.51852327194360E+00
 cg2d: Sum(rhs),rhsMax =  -9.10538062726118E-08  9.51997861079381E+00
 cg2d: Sum(rhs),rhsMax =  -9.10403272769145E-08  9.52138713289450E+00
 cg2d: Sum(rhs),rhsMax =  -9.10271680254482E-08  9.52274605554116E+00
 cg2d: Sum(rhs),rhsMax =  -9.10143498344951E-08  9.52405313717331E+00
 cg2d: Sum(rhs),rhsMax =  -9.10022919242692E-08  9.52530666028232E+00
 cg2d: Sum(rhs),rhsMax =  -9.09905324419924E-08  9.52650541109617E+00
 cg2d: Sum(rhs),rhsMax =  -9.09794692915966E-08  9.52764864727963E+00
 cg2d: Sum(rhs),rhsMax =  -9.09689816808168E-08  9.52873605079492E+00
 cg2d: Sum(rhs),rhsMax =  -9.09588422359775E-08  9.52976767849440E+00
 cg2d: Sum(rhs),rhsMax =  -9.09493280687457E-08  9.53074391639987E+00
 cg2d: Sum(rhs),rhsMax =  -9.09404391791213E-08  9.53166530103624E+00
 cg2d: Sum(rhs),rhsMax =  -9.09316284491979E-08  9.53253252588939E+00
 EXTERNAL_FIELDS_LOAD, it=   3600210 : Reading new data, i0,i1=    4    5 (prev=    3    4 )
 DIC_FIELDS_LOAD, it=   3600210 : Reading new data, i0,i1=    4    5 (prev=    3    4 )
 cg2d: Sum(rhs),rhsMax =  -9.09236845814121E-08  9.53334634295211E+00
 cg2d: Sum(rhs),rhsMax =  -9.09162238826866E-08  9.53412016630968E+00
 cg2d: Sum(rhs),rhsMax =  -9.09088555545168E-08  9.53486144691540E+00
 cg2d: Sum(rhs),rhsMax =  -9.09020556605356E-08  9.53557668814411E+00
 cg2d: Sum(rhs),rhsMax =  -9.08950781308704E-08  9.53626990934916E+00
 cg2d: Sum(rhs),rhsMax =  -9.08885269268467E-08  9.53694479201801E+00
 cg2d: Sum(rhs),rhsMax =  -9.08819686173956E-08  9.53760402798875E+00
 cg2d: Sum(rhs),rhsMax =  -9.08758792661502E-08  9.53824943192211E+00
 cg2d: Sum(rhs),rhsMax =  -9.08692001644340E-08  9.53888215688552E+00
 cg2d: Sum(rhs),rhsMax =  -9.08633310814366E-08  9.53950304357000E+00
 cg2d: Sum(rhs),rhsMax =  -9.08575117364308E-08  9.54011304176576E+00
 cg2d: Sum(rhs),rhsMax =  -9.08516142317239E-08  9.54071301635899E+00
 cg2d: Sum(rhs),rhsMax =  -9.08458943627011E-08  9.54130322912294E+00
 cg2d: Sum(rhs),rhsMax =  -9.08400252797037E-08  9.54188272003942E+00
 cg2d: Sum(rhs),rhsMax =  -9.08349306882883E-08  9.54244934290944E+00
 cg2d: Sum(rhs),rhsMax =  -9.08295305634965E-08  9.54299999628384E+00
 cg2d: Sum(rhs),rhsMax =  -9.08241872821236E-08  9.54353092308816E+00
 cg2d: Sum(rhs),rhsMax =  -9.08189861092978E-08  9.54403796863502E+00
 cg2d: Sum(rhs),rhsMax =  -9.08142894218145E-08  9.54451678452915E+00
 cg2d: Sum(rhs),rhsMax =  -9.08097916862971E-08  9.54496303374895E+00
 cg2d: Sum(rhs),rhsMax =  -9.08056705384297E-08  9.54537256688658E+00
 cg2d: Sum(rhs),rhsMax =  -9.08016417611179E-08  9.54574155534994E+00
 cg2d: Sum(rhs),rhsMax =  -9.07979256226099E-08  9.54606657177462E+00
 cg2d: Sum(rhs),rhsMax =  -9.07952681927782E-08  9.54634467959792E+00
 cg2d: Sum(rhs),rhsMax =  -9.07924189164078E-08  9.54657345840157E+00
 cg2d: Sum(rhs),rhsMax =  -9.07902162339269E-08  9.54675102924543E+00
 cg2d: Sum(rhs),rhsMax =  -9.07886743561903E-08  9.54687605379506E+00
 cg2d: Sum(rhs),rhsMax =  -9.07877648614885E-08  9.54694771403842E+00
 cg2d: Sum(rhs),rhsMax =  -9.07869193156330E-08  9.54696566951997E+00
 cg2d: Sum(rhs),rhsMax =  -9.07865995714019E-08  9.54692999068711E+00
 cg2d: Sum(rhs),rhsMax =  -9.07872106381546E-08  9.54684108541375E+00
 cg2d: Sum(rhs),rhsMax =  -9.07884682987969E-08  9.54669963264824E+00
 cg2d: Sum(rhs),rhsMax =  -9.07898467517043E-08  9.54650651972953E+00
 cg2d: Sum(rhs),rhsMax =  -9.07915449488428E-08  9.54626274758502E+00
 cg2d: Sum(rhs),rhsMax =  -9.07941455352557E-08  9.54596935750525E+00
 cg2d: Sum(rhs),rhsMax =  -9.07970800767544E-08  9.54562738075971E+00
 cg2d: Sum(rhs),rhsMax =  -9.08000501453898E-08  9.54523778248193E+00
 cg2d: Sum(rhs),rhsMax =  -9.08038089164620E-08  9.54480140259877E+00
 cg2d: Sum(rhs),rhsMax =  -9.08078732209106E-08  9.54431888382345E+00
 cg2d: Sum(rhs),rhsMax =  -9.08128896526250E-08  9.54379063440704E+00
 cg2d: Sum(rhs),rhsMax =  -9.08179274006216E-08  9.54321682610369E+00
 cg2d: Sum(rhs),rhsMax =  -9.08231072571652E-08  9.54259741627488E+00
 cg2d: Sum(rhs),rhsMax =  -9.08294239820862E-08  9.54193218180504E+00
 cg2d: Sum(rhs),rhsMax =  -9.08357407070071E-08  9.54122075566689E+00
 cg2d: Sum(rhs),rhsMax =  -9.08426116552619E-08  9.54046266149910E+00
 cg2d: Sum(rhs),rhsMax =  -9.08497668206110E-08  9.53965734943055E+00
 cg2d: Sum(rhs),rhsMax =  -9.08576467395505E-08  9.53880424419014E+00
 cg2d: Sum(rhs),rhsMax =  -9.08659032461401E-08  9.53790282192021E+00
 cg2d: Sum(rhs),rhsMax =  -9.08746713434994E-08  9.53695268180845E+00
 cg2d: Sum(rhs),rhsMax =  -9.08840078750472E-08  9.53595362230667E+00
 cg2d: Sum(rhs),rhsMax =  -9.08936215182621E-08  9.53490571447803E+00
 cg2d: Sum(rhs),rhsMax =  -9.09042654484438E-08  9.53380930168364E+00
 cg2d: Sum(rhs),rhsMax =  -9.09145470018302E-08  9.53266493640869E+00
 cg2d: Sum(rhs),rhsMax =  -9.09259227910297E-08  9.53147332889492E+00
 cg2d: Sum(rhs),rhsMax =  -9.09384141323244E-08  9.53023537646442E+00
 cg2d: Sum(rhs),rhsMax =  -9.09505217805417E-08  9.52895220993865E+00
 cg2d: Sum(rhs),rhsMax =  -9.09629278567081E-08  9.52762520262973E+00
 cg2d: Sum(rhs),rhsMax =  -9.09757815747980E-08  9.52625594300855E+00
 cg2d: Sum(rhs),rhsMax =  -9.09892747813501E-08  9.52484621149773E+00
 cg2d: Sum(rhs),rhsMax =  -9.10029882561503E-08  9.52339794221070E+00
 EXTERNAL_FIELDS_LOAD, it=   3600270 : Reading new data, i0,i1=    5    6 (prev=    4    5 )
 DIC_FIELDS_LOAD, it=   3600270 : Reading new data, i0,i1=    5    6 (prev=    4    5 )
 cg2d: Sum(rhs),rhsMax =  -9.10169930534721E-08  9.52191318167782E+00
 cg2d: Sum(rhs),rhsMax =  -9.10311257484864E-08  9.52041761022813E+00
 cg2d: Sum(rhs),rhsMax =  -9.10455213443129E-08  9.51892843351038E+00
 cg2d: Sum(rhs),rhsMax =  -9.10593485059508E-08  9.51746258399289E+00
 cg2d: Sum(rhs),rhsMax =  -9.10729625047679E-08  9.51603636817957E+00
 cg2d: Sum(rhs),rhsMax =  -9.10860507019606E-08  9.51466517931999E+00
 cg2d: Sum(rhs),rhsMax =  -9.10986344138109E-08  9.51336322967766E+00
 cg2d: Sum(rhs),rhsMax =  -9.11102233658312E-08  9.51214329321166E+00
 cg2d: Sum(rhs),rhsMax =  -9.11212367782355E-08  9.51101645114812E+00
 cg2d: Sum(rhs),rhsMax =  -9.11308219997409E-08  9.50999185515969E+00
 cg2d: Sum(rhs),rhsMax =  -9.11397606273567E-08  9.50907652378690E+00
 cg2d: Sum(rhs),rhsMax =  -9.11473847509114E-08  9.50827517814543E+00
 cg2d: Sum(rhs),rhsMax =  -9.11540354309182E-08  9.50759014752173E+00
 cg2d: Sum(rhs),rhsMax =  -9.11595421371203E-08  9.50702134377118E+00
 cg2d: Sum(rhs),rhsMax =  -9.11640682943471E-08  9.50656629011210E+00
 cg2d: Sum(rhs),rhsMax =  -9.11673012637948E-08  9.50622019182364E+00
 cg2d: Sum(rhs),rhsMax =  -9.11696744765322E-08  9.50597606771963E+00
 cg2d: Sum(rhs),rhsMax =  -9.11708539774736E-08  9.50582494250500E+00
 cg2d: Sum(rhs),rhsMax =  -9.11716497853376E-08  9.50575608648473E+00
 cg2d: Sum(rhs),rhsMax =  -9.11714224116622E-08  9.50575729587021E+00
 cg2d: Sum(rhs),rhsMax =  -9.11708468720462E-08  9.50581523373235E+00
 cg2d: Sum(rhs),rhsMax =  -9.11699018502077E-08  9.50591575069248E+00
 cg2d: Sum(rhs),rhsMax =  -9.11685589244371E-08  9.50604420974297E+00
 cg2d: Sum(rhs),rhsMax =  -9.11669744141363E-08  9.50618583284504E+00
 cg2d: Sum(rhs),rhsMax =  -9.11656883317846E-08  9.50632606101357E+00
 cg2d: Sum(rhs),rhsMax =  -9.11643525114414E-08  9.50645090757042E+00
 cg2d: Sum(rhs),rhsMax =  -9.11635567035773E-08  9.50654729113363E+00
 cg2d: Sum(rhs),rhsMax =  -9.11632938027651E-08  9.50660334354173E+00
 cg2d: Sum(rhs),rhsMax =  -9.11633009081925E-08  9.50660868062301E+00
 cg2d: Sum(rhs),rhsMax =  -9.11639332912273E-08  9.50655462562515E+00
 cg2d: Sum(rhs),rhsMax =  -9.11649706836215E-08  9.50643436311089E+00
 cg2d: Sum(rhs),rhsMax =  -9.11672302095212E-08  9.50624304674150E+00
 cg2d: Sum(rhs),rhsMax =  -9.11696460548228E-08  9.50597781905916E+00
 cg2d: Sum(rhs),rhsMax =  -9.11727440211507E-08  9.50563777710892E+00
 cg2d: Sum(rhs),rhsMax =  -9.11770854372662E-08  9.50522393135291E+00
 cg2d: Sum(rhs),rhsMax =  -9.11816186999204E-08  9.50473911463816E+00
 cg2d: Sum(rhs),rhsMax =  -9.11870614572763E-08  9.50418773930678E+00
 cg2d: Sum(rhs),rhsMax =  -9.11928168534359E-08  9.50357558691374E+00
 cg2d: Sum(rhs),rhsMax =  -9.11992827923314E-08  9.50290964447458E+00
 cg2d: Sum(rhs),rhsMax =  -9.12065729608003E-08  9.50219791542795E+00
 cg2d: Sum(rhs),rhsMax =  -9.12139270781154E-08  9.50144918276843E+00
 cg2d: Sum(rhs),rhsMax =  -9.12212811954305E-08  9.50067274580360E+00
 cg2d: Sum(rhs),rhsMax =  -9.12293955934729E-08  9.49987815929010E+00
 cg2d: Sum(rhs),rhsMax =  -9.12369131356172E-08  9.49907498366882E+00
 cg2d: Sum(rhs),rhsMax =  -9.12447788437021E-08  9.49827255755378E+00
 cg2d: Sum(rhs),rhsMax =  -9.12528008711888E-08  9.49747978836020E+00
 cg2d: Sum(rhs),rhsMax =  -9.12602686753416E-08  9.49670496341604E+00
 cg2d: Sum(rhs),rhsMax =  -9.12679780640246E-08  9.49595558374171E+00
 cg2d: Sum(rhs),rhsMax =  -9.12747850634332E-08  9.49523821505845E+00
 cg2d: Sum(rhs),rhsMax =  -9.12811941589098E-08  9.49455836839740E+00
 cg2d: Sum(rhs),rhsMax =  -9.12878306280618E-08  9.49392042323925E+00
 cg2d: Sum(rhs),rhsMax =  -9.12937139219139E-08  9.49332754785973E+00
 cg2d: Sum(rhs),rhsMax =  -9.12992632606802E-08  9.49278165465699E+00
 cg2d: Sum(rhs),rhsMax =  -9.13035833605136E-08  9.49228339433203E+00
 cg2d: Sum(rhs),rhsMax =  -9.13086424247922E-08  9.49183218209292E+00
 cg2d: Sum(rhs),rhsMax =  -9.13127422563775E-08  9.49142625728328E+00
 cg2d: Sum(rhs),rhsMax =  -9.13163518134752E-08  9.49106276286301E+00
 cg2d: Sum(rhs),rhsMax =  -9.13194782015125E-08  9.49073783789306E+00
 cg2d: Sum(rhs),rhsMax =  -9.13225406407037E-08  9.49044672400271E+00
 cg2d: Sum(rhs),rhsMax =  -9.13253046519458E-08  9.49018390323782E+00
 EXTERNAL_FIELDS_LOAD, it=   3600330 : Reading new data, i0,i1=    6    7 (prev=    5    6 )
 DIC_FIELDS_LOAD, it=   3600330 : Reading new data, i0,i1=    6    7 (prev=    5    6 )
 cg2d: Sum(rhs),rhsMax =  -9.13276210212643E-08  9.48994325700856E+00
 cg2d: Sum(rhs),rhsMax =  -9.13303352945150E-08  9.48970801758053E+00
 cg2d: Sum(rhs),rhsMax =  -9.13328221940901E-08  9.48946471682098E+00
 cg2d: Sum(rhs),rhsMax =  -9.13353943587936E-08  9.48919980375378E+00
 cg2d: Sum(rhs),rhsMax =  -9.13383644274290E-08  9.48889996251626E+00
 cg2d: Sum(rhs),rhsMax =  -9.13418460868343E-08  9.48855235316500E+00
 cg2d: Sum(rhs),rhsMax =  -9.13461093432488E-08  9.48814487205053E+00
 cg2d: Sum(rhs),rhsMax =  -9.13508344524416E-08  9.48766639266868E+00
 cg2d: Sum(rhs),rhsMax =  -9.13563624749258E-08  9.48710698236420E+00
 cg2d: Sum(rhs),rhsMax =  -9.13624518261713E-08  9.48645808347463E+00
 cg2d: Sum(rhs),rhsMax =  -9.13698130489138E-08  9.48571268422533E+00
 cg2d: Sum(rhs),rhsMax =  -9.13783111400335E-08  9.48486545850383E+00
 cg2d: Sum(rhs),rhsMax =  -9.13876760932908E-08  9.48391285858374E+00
 cg2d: Sum(rhs),rhsMax =  -9.13977800109933E-08  9.48285315351105E+00
 cg2d: Sum(rhs),rhsMax =  -9.14093334358768E-08  9.48168641391458E+00
 cg2d: Sum(rhs),rhsMax =  -9.14215760872139E-08  9.48041445516485E+00
 cg2d: Sum(rhs),rhsMax =  -9.14348703418000E-08  9.47904073781749E+00
 cg2d: Sum(rhs),rhsMax =  -9.14490314585237E-08  9.47757022510765E+00
 cg2d: Sum(rhs),rhsMax =  -9.14641802296501E-08  9.47600920384239E+00
 cg2d: Sum(rhs),rhsMax =  -9.14802384954783E-08  9.47436507523804E+00
 cg2d: Sum(rhs),rhsMax =  -9.14970428311790E-08  9.47264612546539E+00
 cg2d: Sum(rhs),rhsMax =  -9.15143658630768E-08  9.47086128598380E+00
 cg2d: Sum(rhs),rhsMax =  -9.15317244221114E-08  9.46901988541289E+00
 cg2d: Sum(rhs),rhsMax =  -9.15503548526431E-08  9.46713139755286E+00
 cg2d: Sum(rhs),rhsMax =  -9.15688005420634E-08  9.46520519129246E+00
 cg2d: Sum(rhs),rhsMax =  -9.15879354579374E-08  9.46325027783096E+00
 cg2d: Sum(rhs),rhsMax =  -9.16070561629567E-08  9.46127510172983E+00
 cg2d: Sum(rhs),rhsMax =  -9.16269016215665E-08  9.45928736176468E+00
 cg2d: Sum(rhs),rhsMax =  -9.16458375854745E-08  9.45729384446051E+00
 cg2d: Sum(rhs),rhsMax =  -9.16652354021608E-08  9.45530032221759E+00
 cg2d: Sum(rhs),rhsMax =  -9.16847469056847E-08  9.45331147339530E+00
 cg2d: Sum(rhs),rhsMax =  -9.17041660386531E-08  9.45133082537812E+00
 cg2d: Sum(rhs),rhsMax =  -9.17234714847837E-08  9.44936073119909E+00
 cg2d: Sum(rhs),rhsMax =  -9.17423008672813E-08  9.44740238220463E+00
 cg2d: Sum(rhs),rhsMax =  -9.17614002560185E-08  9.44545585645758E+00
 cg2d: Sum(rhs),rhsMax =  -9.17801870059520E-08  9.44352020252140E+00
 cg2d: Sum(rhs),rhsMax =  -9.17989737558855E-08  9.44159355733174E+00
 cg2d: Sum(rhs),rhsMax =  -9.18179097197935E-08  9.43967327626014E+00
 cg2d: Sum(rhs),rhsMax =  -9.18367177860091E-08  9.43775607395104E+00
 cg2d: Sum(rhs),rhsMax =  -9.18552629514124E-08  9.43583817490269E+00
 cg2d: Sum(rhs),rhsMax =  -9.18742912858761E-08  9.43391546318717E+00
 cg2d: Sum(rhs),rhsMax =  -9.18933977800407E-08  9.43198362529795E+00
 cg2d: Sum(rhs),rhsMax =  -9.19123053222393E-08  9.43003828806143E+00
 cg2d: Sum(rhs),rhsMax =  -9.19319091963189E-08  9.42807514245689E+00
 cg2d: Sum(rhs),rhsMax =  -9.19516196518089E-08  9.42609005034801E+00
 cg2d: Sum(rhs),rhsMax =  -9.19711453661876E-08  9.42407914155286E+00
 cg2d: Sum(rhs),rhsMax =  -9.19916374186869E-08  9.42203890101561E+00
 cg2d: Sum(rhs),rhsMax =  -9.20122005254598E-08  9.41996625280574E+00
 cg2d: Sum(rhs),rhsMax =  -9.20328773190704E-08  9.41785862954787E+00
 cg2d: Sum(rhs),rhsMax =  -9.20541722848611E-08  9.41571402403211E+00
 cg2d: Sum(rhs),rhsMax =  -9.20761920042423E-08  9.41353104362712E+00
 cg2d: Sum(rhs),rhsMax =  -9.20975224971698E-08  9.41130897700722E+00
 cg2d: Sum(rhs),rhsMax =  -9.21202243375774E-08  9.40904782014454E+00
 cg2d: Sum(rhs),rhsMax =  -9.21427556477283E-08  9.40674826682519E+00
 cg2d: Sum(rhs),rhsMax =  -9.21658624974953E-08  9.40441167656376E+00
 cg2d: Sum(rhs),rhsMax =  -9.21897651551262E-08  9.40204003109270E+00
 cg2d: Sum(rhs),rhsMax =  -9.22136393910478E-08  9.39963588692061E+00
 cg2d: Sum(rhs),rhsMax =  -9.22377765277815E-08  9.39720232327049E+00
 cg2d: Sum(rhs),rhsMax =  -9.22617147125493E-08  9.39474287623570E+00
 cg2d: Sum(rhs),rhsMax =  -9.22866476571471E-08  9.39226147078604E+00
 EXTERNAL_FIELDS_LOAD, it=   3600390 : Reading new data, i0,i1=    7    8 (prev=    6    7 )
 DIC_FIELDS_LOAD, it=   3600390 : Reading new data, i0,i1=    7    8 (prev=    6    7 )
 cg2d: Sum(rhs),rhsMax =  -9.23120353490958E-08  9.38976233427929E+00
 cg2d: Sum(rhs),rhsMax =  -9.23369185557021E-08  9.38724381347799E+00
 cg2d: Sum(rhs),rhsMax =  -9.23620930848301E-08  9.38470550458213E+00
 cg2d: Sum(rhs),rhsMax =  -9.23878431535741E-08  9.38214640732935E+00
 cg2d: Sum(rhs),rhsMax =  -9.24133303215058E-08  9.37956498127073E+00
 cg2d: Sum(rhs),rhsMax =  -9.24395564538827E-08  9.37695924403383E+00
 cg2d: Sum(rhs),rhsMax =  -9.24659673273709E-08  9.37432689628576E+00
 cg2d: Sum(rhs),rhsMax =  -9.24926268908166E-08  9.37166545130188E+00
 cg2d: Sum(rhs),rhsMax =  -9.25199330481519E-08  9.36897236493602E+00
 cg2d: Sum(rhs),rhsMax =  -9.25472107837777E-08  9.36624514198210E+00
 cg2d: Sum(rhs),rhsMax =  -9.25749148450450E-08  9.36348144222541E+00
 cg2d: Sum(rhs),rhsMax =  -9.26027894365689E-08  9.36067916467522E+00
 cg2d: Sum(rhs),rhsMax =  -9.26316801042049E-08  9.35783651518778E+00
 cg2d: Sum(rhs),rhsMax =  -9.26604357687211E-08  9.35495205473915E+00
 cg2d: Sum(rhs),rhsMax =  -9.26899872411013E-08  9.35202472862356E+00
 cg2d: Sum(rhs),rhsMax =  -9.27198087197212E-08  9.34905386050751E+00
 cg2d: Sum(rhs),rhsMax =  -9.27502270542391E-08  9.34603912446753E+00
 cg2d: Sum(rhs),rhsMax =  -9.27809580275607E-08  9.34298052032945E+00
 cg2d: Sum(rhs),rhsMax =  -9.28122148025068E-08  9.33987837125357E+00
 cg2d: Sum(rhs),rhsMax =  -9.28438836922396E-08  9.33673332003228E+00
 cg2d: Sum(rhs),rhsMax =  -9.28756591633828E-08  9.33354631509102E+00
 cg2d: Sum(rhs),rhsMax =  -9.29085999246126E-08  9.33031856217985E+00
 cg2d: Sum(rhs),rhsMax =  -9.29414056827227E-08  9.32705144157814E+00
 cg2d: Sum(rhs),rhsMax =  -9.29742824951063E-08  9.32374640924821E+00
 cg2d: Sum(rhs),rhsMax =  -9.30079835370634E-08  9.32040491207867E+00
 cg2d: Sum(rhs),rhsMax =  -9.30417982658582E-08  9.31702830536998E+00
 cg2d: Sum(rhs),rhsMax =  -9.30764798567907E-08  9.31361778906816E+00
 cg2d: Sum(rhs),rhsMax =  -9.31104011669959E-08  9.31017435680010E+00
 cg2d: Sum(rhs),rhsMax =  -9.31454593455783E-08  9.30669874783390E+00
 cg2d: Sum(rhs),rhsMax =  -9.31809367443748E-08  9.30319140183628E+00
 cg2d: Sum(rhs),rhsMax =  -9.32159238686836E-08  9.29965242032067E+00
 cg2d: Sum(rhs),rhsMax =  -9.32518702256857E-08  9.29608155387300E+00
 cg2d: Sum(rhs),rhsMax =  -9.32883352788849E-08  9.29247816276956E+00
 cg2d: Sum(rhs),rhsMax =  -9.33245232204172E-08  9.28884120452690E+00
 cg2d: Sum(rhs),rhsMax =  -9.33613577558390E-08  9.28516924951164E+00
 cg2d: Sum(rhs),rhsMax =  -9.33982562401070E-08  9.28146051649491E+00
 cg2d: Sum(rhs),rhsMax =  -9.34364479121541E-08  9.27771291851975E+00
 cg2d: Sum(rhs),rhsMax =  -9.34740143065937E-08  9.27392411497484E+00
 cg2d: Sum(rhs),rhsMax =  -9.35126251988549E-08  9.27009157616147E+00
 cg2d: Sum(rhs),rhsMax =  -9.35518329470142E-08  9.26621266064052E+00
 cg2d: Sum(rhs),rhsMax =  -9.35912964905583E-08  9.26228469753356E+00
 cg2d: Sum(rhs),rhsMax =  -9.36311082000429E-08  9.25830502540661E+00
 cg2d: Sum(rhs),rhsMax =  -9.36718080879473E-08  9.25427104022615E+00
 cg2d: Sum(rhs),rhsMax =  -9.37130835154676E-08  9.25018025806528E+00
 cg2d: Sum(rhs),rhsMax =  -9.37547639523473E-08  9.24603037476154E+00
 cg2d: Sum(rhs),rhsMax =  -9.37974888870485E-08  9.24181932462259E+00
 cg2d: Sum(rhs),rhsMax =  -9.38402919814507E-08  9.23754533703139E+00
 cg2d: Sum(rhs),rhsMax =  -9.38843172093584E-08  9.23320698439808E+00
 cg2d: Sum(rhs),rhsMax =  -9.39290814017113E-08  9.22880321317793E+00
 cg2d: Sum(rhs),rhsMax =  -9.39739734917566E-08  9.22433335164241E+00
 cg2d: Sum(rhs),rhsMax =  -9.40200521881707E-08  9.21979710173837E+00
 cg2d: Sum(rhs),rhsMax =  -9.40667135296280E-08  9.21519452384442E+00
 cg2d: Sum(rhs),rhsMax =  -9.41140712029664E-08  9.21052602027441E+00
 cg2d: Sum(rhs),rhsMax =  -9.41621181027585E-08  9.20579231856880E+00
 cg2d: Sum(rhs),rhsMax =  -9.42108115964402E-08  9.20099445172383E+00
 cg2d: Sum(rhs),rhsMax =  -9.42603506359774E-08  9.19613373409314E+00
 cg2d: Sum(rhs),rhsMax =  -9.43106570616692E-08  9.19121172891709E+00
 cg2d: Sum(rhs),rhsMax =  -9.43619582471911E-08  9.18623021276131E+00
 cg2d: Sum(rhs),rhsMax =  -9.44129254776271E-08  9.18119115032627E+00
 cg2d: Sum(rhs),rhsMax =  -9.44648874678933E-08  9.17609666859133E+00
 EXTERNAL_FIELDS_LOAD, it=   3600450 : Reading new data, i0,i1=    8    9 (prev=    7    8 )
 DIC_FIELDS_LOAD, it=   3600450 : Reading new data, i0,i1=    8    9 (prev=    7    8 )
 cg2d: Sum(rhs),rhsMax =  -9.45180929079470E-08  9.17094900539886E+00
 cg2d: Sum(rhs),rhsMax =  -9.45713196642828E-08  9.16576037761048E+00
 cg2d: Sum(rhs),rhsMax =  -9.46249869571147E-08  9.16053907873528E+00
 cg2d: Sum(rhs),rhsMax =  -9.46787679367844E-08  9.15529303788953E+00
 cg2d: Sum(rhs),rhsMax =  -9.47327123412833E-08  9.15002961005962E+00
 cg2d: Sum(rhs),rhsMax =  -9.47873814993727E-08  9.14475542293395E+00
 cg2d: Sum(rhs),rhsMax =  -9.48415888046839E-08  9.13947626776025E+00
 cg2d: Sum(rhs),rhsMax =  -9.48963148061921E-08  9.13419703804716E+00
 cg2d: Sum(rhs),rhsMax =  -9.49505718494947E-08  9.12892171232682E+00
 cg2d: Sum(rhs),rhsMax =  -9.50055820680973E-08  9.12365335338700E+00
 cg2d: Sum(rhs),rhsMax =  -9.50602441207593E-08  9.11839411243203E+00
 cg2d: Sum(rhs),rhsMax =  -9.51149274897034E-08  9.11314523538299E+00
 cg2d: Sum(rhs),rhsMax =  -9.51689713701853E-08  9.10790707134369E+00
 cg2d: Sum(rhs),rhsMax =  -9.52241663298992E-08  9.10267908920085E+00
 cg2d: Sum(rhs),rhsMax =  -9.52785583763216E-08  9.09745990818067E+00
 cg2d: Sum(rhs),rhsMax =  -9.53332346398383E-08  9.09224734512777E+00
 cg2d: Sum(rhs),rhsMax =  -9.53879322196372E-08  9.08703847736888E+00
 cg2d: Sum(rhs),rhsMax =  -9.54423811094784E-08  9.08182972075513E+00
 cg2d: Sum(rhs),rhsMax =  -9.54974623823546E-08  9.07661692347198E+00
 cg2d: Sum(rhs),rhsMax =  -9.55527141854873E-08  9.07139547821490E+00
 cg2d: Sum(rhs),rhsMax =  -9.56078878289190E-08  9.06616045270155E+00
 cg2d: Sum(rhs),rhsMax =  -9.56632462134621E-08  9.06090673305150E+00
 cg2d: Sum(rhs),rhsMax =  -9.57190593453561E-08  9.05562917574046E+00
 cg2d: Sum(rhs),rhsMax =  -9.57753982788745E-08  9.05032276301453E+00
 cg2d: Sum(rhs),rhsMax =  -9.58323127520089E-08  9.04498274779792E+00
 cg2d: Sum(rhs),rhsMax =  -9.58890566948867E-08  9.03960479010611E+00
 cg2d: Sum(rhs),rhsMax =  -9.59469090844323E-08  9.03418508103277E+00
 cg2d: Sum(rhs),rhsMax =  -9.60046975251316E-08  9.02872044807494E+00
 cg2d: Sum(rhs),rhsMax =  -9.60634949365158E-08  9.02320843719522E+00
 cg2d: Sum(rhs),rhsMax =  -9.61234505325592E-08  9.01764736350553E+00
 cg2d: Sum(rhs),rhsMax =  -9.61829158541150E-08  9.01203632711249E+00
 cg2d: Sum(rhs),rhsMax =  -9.62436175200310E-08  9.00637519234014E+00
 cg2d: Sum(rhs),rhsMax =  -9.63047241953063E-08  9.00066454100738E+00
 cg2d: Sum(rhs),rhsMax =  -9.63663566722062E-08  8.99490560644289E+00
 cg2d: Sum(rhs),rhsMax =  -9.64286215321408E-08  8.98910019830229E+00
 cg2d: Sum(rhs),rhsMax =  -9.64914832479735E-08  8.98325060608421E+00
 cg2d: Sum(rhs),rhsMax =  -9.65549631359863E-08  8.97735949860674E+00
 cg2d: Sum(rhs),rhsMax =  -9.66191180395981E-08  8.97142982445055E+00
 cg2d: Sum(rhs),rhsMax =  -9.66832942594920E-08  8.96546471599943E+00
 cg2d: Sum(rhs),rhsMax =  -9.67482520763951E-08  8.95946740124540E+00
 cg2d: Sum(rhs),rhsMax =  -9.68132098932983E-08  8.95344112713886E+00
 cg2d: Sum(rhs),rhsMax =  -9.68790274669118E-08  8.94738909112794E+00
 cg2d: Sum(rhs),rhsMax =  -9.69447810916790E-08  8.94131438207753E+00
 cg2d: Sum(rhs),rhsMax =  -9.70111884157632E-08  8.93521991327319E+00
 cg2d: Sum(rhs),rhsMax =  -9.70773115227530E-08  8.92910833888471E+00
 cg2d: Sum(rhs),rhsMax =  -9.71445075492738E-08  8.92298199747039E+00
 cg2d: Sum(rhs),rhsMax =  -9.72113554098541E-08  8.91684290726808E+00
 cg2d: Sum(rhs),rhsMax =  -9.72787574937684E-08  8.91069264633776E+00
 cg2d: Sum(rhs),rhsMax =  -9.73459535202892E-08  8.90453228797114E+00
 cg2d: Sum(rhs),rhsMax =  -9.74135971887335E-08  8.89836249714105E+00
 cg2d: Sum(rhs),rhsMax =  -9.74817027099562E-08  8.89218368115518E+00
 cg2d: Sum(rhs),rhsMax =  -9.75496519117769E-08  8.88599608996445E+00
 cg2d: Sum(rhs),rhsMax =  -9.76179350686834E-08  8.87979980032782E+00
 cg2d: Sum(rhs),rhsMax =  -9.76860476953334E-08  8.87359466021019E+00
 cg2d: Sum(rhs),rhsMax =  -9.77549490244201E-08  8.86737992136571E+00
 cg2d: Sum(rhs),rhsMax =  -9.78237792992331E-08  8.86115449881272E+00
 cg2d: Sum(rhs),rhsMax =  -9.78925882577641E-08  8.85491714939279E+00
 cg2d: Sum(rhs),rhsMax =  -9.79620651264668E-08  8.84866650814923E+00
 cg2d: Sum(rhs),rhsMax =  -9.80318830556826E-08  8.84239908862083E+00
 cg2d: Sum(rhs),rhsMax =  -9.81016583523342E-08  8.83611205511795E+00
 EXTERNAL_FIELDS_LOAD, it=   3600510 : Reading new data, i0,i1=    9   10 (prev=    8    9 )
 DIC_FIELDS_LOAD, it=   3600510 : Reading new data, i0,i1=    9   10 (prev=    8    9 )
 cg2d: Sum(rhs),rhsMax =  -9.81721868242857E-08  8.82980306034887E+00
 cg2d: Sum(rhs),rhsMax =  -9.82427721396562E-08  8.82347164349139E+00
 cg2d: Sum(rhs),rhsMax =  -9.83135990395567E-08  8.81711735596894E+00
 cg2d: Sum(rhs),rhsMax =  -9.83851720093298E-08  8.81074020360017E+00
 cg2d: Sum(rhs),rhsMax =  -9.84564962891454E-08  8.80434063629974E+00
 cg2d: Sum(rhs),rhsMax =  -9.85286376931072E-08  8.79791959804717E+00
 cg2d: Sum(rhs),rhsMax =  -9.86011414738641E-08  8.79147850051498E+00
 cg2d: Sum(rhs),rhsMax =  -9.86734960406466E-08  8.78501923806664E+00
 cg2d: Sum(rhs),rhsMax =  -9.87464900958912E-08  8.77854412431977E+00
 cg2d: Sum(rhs),rhsMax =  -9.88197470519481E-08  8.77205585109022E+00
 cg2d: Sum(rhs),rhsMax =  -9.88934729662105E-08  8.76555740298602E+00
 cg2d: Sum(rhs),rhsMax =  -9.89669146633787E-08  8.75905198910442E+00
 cg2d: Sum(rhs),rhsMax =  -9.90407258427695E-08  8.75254295465281E+00
 cg2d: Sum(rhs),rhsMax =  -9.91145014950234E-08  8.74603368964057E+00
 cg2d: Sum(rhs),rhsMax =  -9.91886466295000E-08  8.73952755244439E+00
 cg2d: Sum(rhs),rhsMax =  -9.92623157003436E-08  8.73302782624689E+00
 cg2d: Sum(rhs),rhsMax =  -9.93363400425551E-08  8.72653766294564E+00
 cg2d: Sum(rhs),rhsMax =  -9.94104141227581E-08  8.72006002219781E+00
 cg2d: Sum(rhs),rhsMax =  -9.94844668866790E-08  8.71359759621992E+00
 cg2d: Sum(rhs),rhsMax =  -9.95583775420528E-08  8.70715278372291E+00
 cg2d: Sum(rhs),rhsMax =  -9.96322597757171E-08  8.70072771032166E+00
 cg2d: Sum(rhs),rhsMax =  -9.97059714791249E-08  8.69432422374462E+00
 cg2d: Sum(rhs),rhsMax =  -9.97792923840279E-08  8.68794392220557E+00
 cg2d: Sum(rhs),rhsMax =  -9.98527127649140E-08  8.68159287495532E+00
 cg2d: Sum(rhs),rhsMax =  -9.99256144496030E-08  8.67527594836007E+00
 cg2d: Sum(rhs),rhsMax =  -9.99983740257449E-08  8.66899648662334E+00
 cg2d: Sum(rhs),rhsMax =  -1.00070764119664E-07  8.66275674813775E+00
 cg2d: Sum(rhs),rhsMax =  -1.00142791836788E-07  8.65655808426570E+00
 cg2d: Sum(rhs),rhsMax =  -1.00214123222031E-07  8.65040095427649E+00
 cg2d: Sum(rhs),rhsMax =  -1.00285419080137E-07  8.64428511771589E+00
 cg2d: Sum(rhs),rhsMax =  -1.00356203347474E-07  8.63820779072895E+00
 cg2d: Sum(rhs),rhsMax =  -1.00426881033400E-07  8.63216610266613E+00
 cg2d: Sum(rhs),rhsMax =  -1.00497182131676E-07  8.62615664857018E+00
 cg2d: Sum(rhs),rhsMax =  -1.00566929006618E-07  8.62017549344574E+00
 cg2d: Sum(rhs),rhsMax =  -1.00636839306389E-07  8.61421824973427E+00
 cg2d: Sum(rhs),rhsMax =  -1.00706515127058E-07  8.60828014305759E+00
 cg2d: Sum(rhs),rhsMax =  -1.00776318845419E-07  8.60235619466164E+00
 cg2d: Sum(rhs),rhsMax =  -1.00845916506387E-07  8.59644141396147E+00
 cg2d: Sum(rhs),rhsMax =  -1.00915485745645E-07  8.59053104903554E+00
 cg2d: Sum(rhs),rhsMax =  -1.00985261042297E-07  8.58462072248315E+00
 cg2d: Sum(rhs),rhsMax =  -1.01055491086299E-07  8.57870663714626E+00
 cg2d: Sum(rhs),rhsMax =  -1.01125422702353E-07  8.57278566865890E+00
 cg2d: Sum(rhs),rhsMax =  -1.01195716695202E-07  8.56685532083521E+00
 cg2d: Sum(rhs),rhsMax =  -1.01266216745444E-07  8.56091374139585E+00
 cg2d: Sum(rhs),rhsMax =  -1.01337192859319E-07  8.55495975914983E+00
 cg2d: Sum(rhs),rhsMax =  -1.01408346608878E-07  8.54899275863313E+00
 cg2d: Sum(rhs),rhsMax =  -1.01479535885574E-07  8.54301265247851E+00
 cg2d: Sum(rhs),rhsMax =  -1.01551435705005E-07  8.53701978569626E+00
 cg2d: Sum(rhs),rhsMax =  -1.01622724457684E-07  8.53101490472480E+00
 cg2d: Sum(rhs),rhsMax =  -1.01695292187287E-07  8.52499919193590E+00
 cg2d: Sum(rhs),rhsMax =  -1.01767554383514E-07  8.51897431341724E+00
 cg2d: Sum(rhs),rhsMax =  -1.01840242905382E-07  8.51294235247767E+00
 cg2d: Sum(rhs),rhsMax =  -1.01912846162122E-07  8.50690569200869E+00
 cg2d: Sum(rhs),rhsMax =  -1.01985413891725E-07  8.50087005576702E+00
 cg2d: Sum(rhs),rhsMax =  -1.02058450579534E-07  8.49484015017416E+00
 cg2d: Sum(rhs),rhsMax =  -1.02131188839394E-07  8.48882063673028E+00
 cg2d: Sum(rhs),rhsMax =  -1.02203856044980E-07  8.48281607441673E+00
 cg2d: Sum(rhs),rhsMax =  -1.02276672464541E-07  8.47683086082370E+00
 cg2d: Sum(rhs),rhsMax =  -1.02349595465512E-07  8.47086915096995E+00
 cg2d: Sum(rhs),rhsMax =  -1.02421360281824E-07  8.46493476809303E+00
 EXTERNAL_FIELDS_LOAD, it=   3600570 : Reading new data, i0,i1=   10   11 (prev=    9   10 )
 DIC_FIELDS_LOAD, it=   3600570 : Reading new data, i0,i1=   10   11 (prev=    9   10 )
 cg2d: Sum(rhs),rhsMax =  -1.02493515896640E-07  8.45903109783263E+00
 cg2d: Sum(rhs),rhsMax =  -1.02564975179575E-07  8.45319648993583E+00
 cg2d: Sum(rhs),rhsMax =  -1.02634501786270E-07  8.44745634270964E+00
 cg2d: Sum(rhs),rhsMax =  -1.02703893389844E-07  8.44183524325516E+00
 cg2d: Sum(rhs),rhsMax =  -1.02770819410125E-07  8.43635626330932E+00
 cg2d: Sum(rhs),rhsMax =  -1.02836231974379E-07  8.43104036727980E+00
 cg2d: Sum(rhs),rhsMax =  -1.02899214482477E-07  8.42590597581903E+00
 cg2d: Sum(rhs),rhsMax =  -1.02960150627496E-07  8.42096861540595E+00
 cg2d: Sum(rhs),rhsMax =  -1.03018727770632E-07  8.41624063283881E+00
 cg2d: Sum(rhs),rhsMax =  -1.03074462742825E-07  8.41173099284368E+00
 cg2d: Sum(rhs),rhsMax =  -1.03127582917750E-07  8.40744522364360E+00
 cg2d: Sum(rhs),rhsMax =  -1.03177704602331E-07  8.40338548638234E+00
 cg2d: Sum(rhs),rhsMax =  -1.03225289649345E-07  8.39955071057647E+00
 cg2d: Sum(rhs),rhsMax =  -1.03270444640202E-07  8.39593686353065E+00
 cg2d: Sum(rhs),rhsMax =  -1.03312800092681E-07  8.39253726007720E+00
 cg2d: Sum(rhs),rhsMax =  -1.03352554958747E-07  8.38934286490718E+00
 cg2d: Sum(rhs),rhsMax =  -1.03389886874083E-07  8.38634267692018E+00
 cg2d: Sum(rhs),rhsMax =  -1.03425186637196E-07  8.38352418466840E+00
 cg2d: Sum(rhs),rhsMax =  -1.03458575040349E-07  8.38087384792736E+00
 cg2d: Sum(rhs),rhsMax =  -1.03489654179612E-07  8.37837764295235E+00
 cg2d: Sum(rhs),rhsMax =  -1.03519347760539E-07  8.37602165023152E+00
 cg2d: Sum(rhs),rhsMax =  -1.03547364460610E-07  8.37379265495454E+00
 cg2d: Sum(rhs),rhsMax =  -1.03573896126363E-07  8.37167859305842E+00
 cg2d: Sum(rhs),rhsMax =  -1.03599155920620E-07  8.36966841617237E+00
 cg2d: Sum(rhs),rhsMax =  -1.03623357006200E-07  8.36775262363169E+00
 cg2d: Sum(rhs),rhsMax =  -1.03646584648232E-07  8.36592322530019E+00
 cg2d: Sum(rhs),rhsMax =  -1.03668426731929E-07  8.36417370361670E+00
 cg2d: Sum(rhs),rhsMax =  -1.03689806962848E-07  8.36249893566327E+00
 cg2d: Sum(rhs),rhsMax =  -1.03710164012227E-07  8.36089512198643E+00
 cg2d: Sum(rhs),rhsMax =  -1.03729064448999E-07  8.35935972193128E+00
 cg2d: Sum(rhs),rhsMax =  -1.03747986202052E-07  8.35789132052859E+00
 cg2d: Sum(rhs),rhsMax =  -1.03765373182796E-07  8.35648953984663E+00
 cg2d: Sum(rhs),rhsMax =  -1.03782369365035E-07  8.35515503666620E+00
 cg2d: Sum(rhs),rhsMax =  -1.03798733164240E-07  8.35388959337713E+00
 cg2d: Sum(rhs),rhsMax =  -1.03813491136862E-07  8.35269612989214E+00
 cg2d: Sum(rhs),rhsMax =  -1.03827638042731E-07  8.35157865319166E+00
 cg2d: Sum(rhs),rhsMax =  -1.03841280463257E-07  8.35054220321588E+00
 cg2d: Sum(rhs),rhsMax =  -1.03853331268056E-07  8.34959282244478E+00
 cg2d: Sum(rhs),rhsMax =  -1.03864024936229E-07  8.34873757212784E+00
 cg2d: Sum(rhs),rhsMax =  -1.03873794898846E-07  8.34798443944571E+00
 cg2d: Sum(rhs),rhsMax =  -1.03881951929452E-07  8.34734205444848E+00
 cg2d: Sum(rhs),rhsMax =  -1.03888730507151E-07  8.34681927427749E+00
 cg2d: Sum(rhs),rhsMax =  -1.03893782466002E-07  8.34642479662444E+00
 cg2d: Sum(rhs),rhsMax =  -1.03896695691219E-07  8.34616690162161E+00
 cg2d: Sum(rhs),rhsMax =  -1.03898251779810E-07  8.34605328416144E+00
 cg2d: Sum(rhs),rhsMax =  -1.03897747294468E-07  8.34609086201575E+00
 cg2d: Sum(rhs),rhsMax =  -1.03895416714295E-07  8.34628560159372E+00
 cg2d: Sum(rhs),rhsMax =  -1.03891132141598E-07  8.34664238294981E+00
 cg2d: Sum(rhs),rhsMax =  -1.03884730151549E-07  8.34716488141953E+00
 cg2d: Sum(rhs),rhsMax =  -1.03876232060429E-07  8.34785544920597E+00
 cg2d: Sum(rhs),rhsMax =  -1.03865339440290E-07  8.34871504733891E+00
 cg2d: Sum(rhs),rhsMax =  -1.03852393351644E-07  8.34974320296400E+00
 cg2d: Sum(rhs),rhsMax =  -1.03837578535604E-07  8.35093803633076E+00
 cg2d: Sum(rhs),rhsMax =  -1.03820866570459E-07  8.35229628921908E+00
 cg2d: Sum(rhs),rhsMax =  -1.03801575335183E-07  8.35381348895399E+00
 cg2d: Sum(rhs),rhsMax =  -1.03780770643880E-07  8.35548405560547E+00
 cg2d: Sum(rhs),rhsMax =  -1.03758168279455E-07  8.35730145035772E+00
 cg2d: Sum(rhs),rhsMax =  -1.03734052459004E-07  8.35925834161856E+00
 cg2d: Sum(rhs),rhsMax =  -1.03707641585515E-07  8.36134677020027E+00
 cg2d: Sum(rhs),rhsMax =  -1.03680264373907E-07  8.36355833544679E+00
 EXTERNAL_FIELDS_LOAD, it=   3600630 : Reading new data, i0,i1=   11   12 (prev=   10   11 )
 DIC_FIELDS_LOAD, it=   3600630 : Reading new data, i0,i1=   11   12 (prev=   10   11 )
 cg2d: Sum(rhs),rhsMax =  -1.03651167648877E-07  8.36588437297216E+00
 cg2d: Sum(rhs),rhsMax =  -1.03620983793462E-07  8.36829873825493E+00
 cg2d: Sum(rhs),rhsMax =  -1.03590167555012E-07  8.37078098256463E+00
 cg2d: Sum(rhs),rhsMax =  -1.03558832620365E-07  8.37331076990736E+00
 cg2d: Sum(rhs),rhsMax =  -1.03526986094948E-07  8.37586828475342E+00
 cg2d: Sum(rhs),rhsMax =  -1.03494969039275E-07  8.37843651347270E+00
 cg2d: Sum(rhs),rhsMax =  -1.03462959089029E-07  8.38100058596186E+00
 cg2d: Sum(rhs),rhsMax =  -1.03431759157502E-07  8.38354800119352E+00
 cg2d: Sum(rhs),rhsMax =  -1.03400431328282E-07  8.38606907281455E+00
 cg2d: Sum(rhs),rhsMax =  -1.03369536930131E-07  8.38855705740912E+00
 cg2d: Sum(rhs),rhsMax =  -1.03339182544460E-07  8.39100818777902E+00
 cg2d: Sum(rhs),rhsMax =  -1.03309091059600E-07  8.39342162927294E+00
 cg2d: Sum(rhs),rhsMax =  -1.03279326424399E-07  8.39579937673915E+00
 cg2d: Sum(rhs),rhsMax =  -1.03250158645096E-07  8.39814606298476E+00
 cg2d: Sum(rhs),rhsMax =  -1.03221587721691E-07  8.40046867037939E+00
 cg2d: Sum(rhs),rhsMax =  -1.03192640210636E-07  8.40277617859981E+00
 cg2d: Sum(rhs),rhsMax =  -1.03164317977189E-07  8.40507915533000E+00
 cg2d: Sum(rhs),rhsMax =  -1.03135583628955E-07  8.40738929078001E+00
 cg2d: Sum(rhs),rhsMax =  -1.03106465587643E-07  8.40971893982490E+00
 cg2d: Sum(rhs),rhsMax =  -1.03077603341717E-07  8.41208069021930E+00
 cg2d: Sum(rhs),rhsMax =  -1.03047760546815E-07  8.41448664736628E+00
 cg2d: Sum(rhs),rhsMax =  -1.03017328001442E-07  8.41694808963461E+00
 cg2d: Sum(rhs),rhsMax =  -1.02985850958248E-07  8.41947641344255E+00
 cg2d: Sum(rhs),rhsMax =  -1.02953762848301E-07  8.42209465677943E+00
 cg2d: Sum(rhs),rhsMax =  -1.02920779454507E-07  8.42481840011152E+00
 cg2d: Sum(rhs),rhsMax =  -1.02885756803062E-07  8.42766143831664E+00
 cg2d: Sum(rhs),rhsMax =  -1.02849760708068E-07  8.43063562227923E+00
 cg2d: Sum(rhs),rhsMax =  -1.02811505087175E-07  8.43375048923612E+00
 cg2d: Sum(rhs),rhsMax =  -1.02771743115682E-07  8.43701312183894E+00
 cg2d: Sum(rhs),rhsMax =  -1.02730268736195E-07  8.44042805498092E+00
 cg2d: Sum(rhs),rhsMax =  -1.02686364300553E-07  8.44399728026233E+00
 cg2d: Sum(rhs),rhsMax =  -1.02641237731405E-07  8.44772028674299E+00
 cg2d: Sum(rhs),rhsMax =  -1.02594057693750E-07  8.45159419183708E+00
 cg2d: Sum(rhs),rhsMax =  -1.02545079982974E-07  8.45561389463918E+00
 cg2d: Sum(rhs),rhsMax =  -1.02494418285914E-07  8.45977229544668E+00
 cg2d: Sum(rhs),rhsMax =  -1.02442626825905E-07  8.46406043486096E+00
 cg2d: Sum(rhs),rhsMax =  -1.02389186906748E-07  8.46846786249842E+00
 cg2d: Sum(rhs),rhsMax =  -1.02334411167249E-07  8.47298294092153E+00
 cg2d: Sum(rhs),rhsMax =  -1.02278569613645E-07  8.47759310010859E+00
 cg2d: Sum(rhs),rhsMax =  -1.02221783038203E-07  8.48228511495217E+00
 cg2d: Sum(rhs),rhsMax =  -1.02164435134000E-07  8.48704540520819E+00
 cg2d: Sum(rhs),rhsMax =  -1.02106639587873E-07  8.49186038102640E+00
 cg2d: Sum(rhs),rhsMax =  -1.02048161920720E-07  8.49671683330553E+00
 cg2d: Sum(rhs),rhsMax =  -1.01989222400789E-07  8.50160229731839E+00
 cg2d: Sum(rhs),rhsMax =  -1.01930119456028E-07  8.50650541756349E+00
 cg2d: Sum(rhs),rhsMax =  -1.01871734159431E-07  8.51141606286167E+00
 cg2d: Sum(rhs),rhsMax =  -1.01813114383731E-07  8.51632550458549E+00
 cg2d: Sum(rhs),rhsMax =  -1.01754352499484E-07  8.52122658728227E+00
 cg2d: Sum(rhs),rhsMax =  -1.01695938781177E-07  8.52611387363114E+00
 cg2d: Sum(rhs),rhsMax =  -1.01637908755947E-07  8.53098375482528E+00
 cg2d: Sum(rhs),rhsMax =  -1.01580091893538E-07  8.53583450654913E+00
 cg2d: Sum(rhs),rhsMax =  -1.01522516615660E-07  8.54066629803099E+00
 cg2d: Sum(rhs),rhsMax =  -1.01465325030858E-07  8.54548114840508E+00
 cg2d: Sum(rhs),rhsMax =  -1.01408510033707E-07  8.55028281355603E+00
 cg2d: Sum(rhs),rhsMax =  -1.01351844250530E-07  8.55507663782142E+00
 cg2d: Sum(rhs),rhsMax =  -1.01294901355686E-07  8.55986938569464E+00
 cg2d: Sum(rhs),rhsMax =  -1.01238242677937E-07  8.56466907941720E+00
 cg2d: Sum(rhs),rhsMax =  -1.01181711897880E-07  8.56948481849350E+00
 cg2d: Sum(rhs),rhsMax =  -1.01124427942523E-07  8.57432655386490E+00
 cg2d: Sum(rhs),rhsMax =  -1.01066994773191E-07  8.57920482306538E+00
 EXTERNAL_FIELDS_LOAD, it=   3600690 : Reading new data, i0,i1=   12    1 (prev=   11   12 )
 DIC_FIELDS_LOAD, it=   3600690 : Reading new data, i0,i1=   12    1 (prev=   11   12 )
 cg2d: Sum(rhs),rhsMax =  -1.01009099751082E-07  8.58413045456863E+00
 cg2d: Sum(rhs),rhsMax =  -1.00950970249869E-07  8.58908772075261E+00
 cg2d: Sum(rhs),rhsMax =  -1.00892201260194E-07  8.59407113784658E+00
 cg2d: Sum(rhs),rhsMax =  -1.00833979388426E-07  8.59907533504329E+00
 cg2d: Sum(rhs),rhsMax =  -1.00775366718153E-07  8.60409527812640E+00
 cg2d: Sum(rhs),rhsMax =  -1.00716533779632E-07  8.60912639608676E+00
 cg2d: Sum(rhs),rhsMax =  -1.00657807422522E-07  8.61416467727663E+00
 cg2d: Sum(rhs),rhsMax =  -1.00599194752249E-07  8.61920670304104E+00
 cg2d: Sum(rhs),rhsMax =  -1.00540219705181E-07  8.62424959025954E+00
 cg2d: Sum(rhs),rhsMax =  -1.00481713616318E-07  8.62929084710763E+00
 cg2d: Sum(rhs),rhsMax =  -1.00423278581729E-07  8.63432823431656E+00
 cg2d: Sum(rhs),rhsMax =  -1.00365085131671E-07  8.63935967110789E+00
 cg2d: Sum(rhs),rhsMax =  -1.00306984052168E-07  8.64438326330631E+00
 cg2d: Sum(rhs),rhsMax =  -1.00248698231553E-07  8.64939736363611E+00
 cg2d: Sum(rhs),rhsMax =  -1.00191144269957E-07  8.65440069908248E+00
 cg2d: Sum(rhs),rhsMax =  -1.00133568992078E-07  8.65939260929048E+00
 cg2d: Sum(rhs),rhsMax =  -1.00076100295610E-07  8.66437312037654E+00
 cg2d: Sum(rhs),rhsMax =  -1.00019036608501E-07  8.66934290835576E+00
 cg2d: Sum(rhs),rhsMax =  -9.99617597585711E-08  8.67430225124478E+00
 cg2d: Sum(rhs),rhsMax =  -9.99047102823170E-08  8.67925494682890E+00
 cg2d: Sum(rhs),rhsMax =  -9.98482363456787E-08  8.68420608713978E+00
 cg2d: Sum(rhs),rhsMax =  -9.97913716105359E-08  8.68916081980566E+00
 cg2d: Sum(rhs),rhsMax =  -9.97343434505638E-08  8.69412416784580E+00
 cg2d: Sum(rhs),rhsMax =  -9.96773295014464E-08  8.69910085245627E+00
 cg2d: Sum(rhs),rhsMax =  -9.96202871306195E-08  8.70409517445086E+00
 cg2d: Sum(rhs),rhsMax =  -9.95629250155616E-08  8.70911095741398E+00
 cg2d: Sum(rhs),rhsMax =  -9.95059110664442E-08  8.71415148969223E+00
 cg2d: Sum(rhs),rhsMax =  -9.94480160443345E-08  8.71921930590513E+00
 cg2d: Sum(rhs),rhsMax =  -9.93902702361993E-08  8.72431607432102E+00
 cg2d: Sum(rhs),rhsMax =  -9.93317215147727E-08  8.72944261226047E+00
 cg2d: Sum(rhs),rhsMax =  -9.92735280647139E-08  8.73459893266904E+00
 cg2d: Sum(rhs),rhsMax =  -9.92147448641845E-08  8.73978430818157E+00
 cg2d: Sum(rhs),rhsMax =  -9.91560966667748E-08  8.74499735837366E+00
 cg2d: Sum(rhs),rhsMax =  -9.90966526615011E-08  8.75023614706347E+00
 cg2d: Sum(rhs),rhsMax =  -9.90366970654577E-08  8.75549829188909E+00
 cg2d: Sum(rhs),rhsMax =  -9.89772743764661E-08  8.76078107848702E+00
 cg2d: Sum(rhs),rhsMax =  -9.89177024735000E-08  8.76608155580086E+00
 cg2d: Sum(rhs),rhsMax =  -9.88579742511320E-08  8.77139664107964E+00
 cg2d: Sum(rhs),rhsMax =  -9.87977060162848E-08  8.77672320795606E+00
 cg2d: Sum(rhs),rhsMax =  -9.87382264838743E-08  8.78205816635757E+00
(PID.TID 0000.0001) Did not write pickup because writePickupAtEnd = FALSE
 DIC_SURFFORCING_INIT, it=   3600000 : Reading new data, i0,i1=   12    1
 QQ: pCO2 approximation method
 QQ first guess pH 8.2869849781645275,  7.129213793781922,  34.1535348423009,  2.0282,  5.43799999999999991E-4,  8.08490416966378689E-3,  2.3086000000000002
(PID.TID 0000.0001) // =======================================================
(PID.TID 0000.0001) // Model current state
(PID.TID 0000.0001) // =======================================================
(PID.TID 0000.0001) 
 EXTERNAL_FIELDS_LOAD, it=   3600000 : Reading new data, i0,i1=   12    1 (prev=   12    0 )
 DIC_FIELDS_LOAD, it=   3600000 : Reading new data, i0,i1=   12    1 (prev=   12    0 )
 cg2d: Sum(rhs),rhsMax =  -9.92433868418630E-08  8.73439671821315E+00
 cg2d: Sum(rhs),rhsMax =  -9.91844260056496E-08  8.73957958587058E+00
 cg2d: Sum(rhs),rhsMax =  -9.91252449011881E-08  8.74478969091806E+00
 cg2d: Sum(rhs),rhsMax =  -9.90665185440776E-08  8.75002495477880E+00
 cg2d: Sum(rhs),rhsMax =  -9.90068542705558E-08  8.75528284057604E+00
 cg2d: Sum(rhs),rhsMax =  -9.89473534218632E-08  8.76056047500076E+00
 cg2d: Sum(rhs),rhsMax =  -9.88878241514612E-08  8.76585475900637E+00
 cg2d: Sum(rhs),rhsMax =  -9.88279893476829E-08  8.77116249138180E+00
 cg2d: Sum(rhs),rhsMax =  -9.87682469144602E-08  8.77648047471154E+00
 cg2d: Sum(rhs),rhsMax =  -9.87087602766223E-08  8.78180560756084E+00
 cg2d: Sum(rhs),rhsMax =  -9.86489112619893E-08  8.78713494778165E+00
 cg2d: Sum(rhs),rhsMax =  -9.85891404070571E-08  8.79246575399440E+00
 cg2d: Sum(rhs),rhsMax =  -9.85293340249882E-08  8.79779549299699E+00
 cg2d: Sum(rhs),rhsMax =  -9.84700747608258E-08  8.80312181092759E+00
 cg2d: Sum(rhs),rhsMax =  -9.84108581292276E-08  8.80844249631459E+00
 cg2d: Sum(rhs),rhsMax =  -9.83516486030567E-08  8.81375547068360E+00
 cg2d: Sum(rhs),rhsMax =  -9.82926522397065E-08  8.81905885446822E+00
 cg2d: Sum(rhs),rhsMax =  -9.82337553523394E-08  8.82435106608147E+00
 cg2d: Sum(rhs),rhsMax =  -9.81751568929212E-08  8.82963093738125E+00
 cg2d: Sum(rhs),rhsMax =  -9.81166650149135E-08  8.83489782452132E+00
 cg2d: Sum(rhs),rhsMax =  -9.80585213028462E-08  8.84015168145881E+00
 cg2d: Sum(rhs),rhsMax =  -9.80007470730015E-08  8.84539306572338E+00
 cg2d: Sum(rhs),rhsMax =  -9.79429586323022E-08  8.85062306296846E+00
 cg2d: Sum(rhs),rhsMax =  -9.78853904598509E-08  8.85584316140559E+00
 cg2d: Sum(rhs),rhsMax =  -9.78280425556477E-08  8.86105508303604E+00
 cg2d: Sum(rhs),rhsMax =  -9.77709291305473E-08  8.86626061391844E+00
 cg2d: Sum(rhs),rhsMax =  -9.77132472712583E-08  8.87146147123075E+00
 cg2d: Sum(rhs),rhsMax =  -9.76563327981239E-08  8.87665923110881E+00
 cg2d: Sum(rhs),rhsMax =  -9.75990843699037E-08  8.88185530584736E+00
 cg2d: Sum(rhs),rhsMax =  -9.75420704207863E-08  8.88705095973601E+00
 EXTERNAL_FIELDS_LOAD, it=   3600030 : Reading new data, i0,i1=    1    2 (prev=   12    1 )
 DIC_FIELDS_LOAD, it=   3600030 : Reading new data, i0,i1=    1    2 (prev=   12    1 )
 cg2d: Sum(rhs),rhsMax =  -9.74853406887632E-08  8.89224735691429E+00
 cg2d: Sum(rhs),rhsMax =  -9.74287814869967E-08  8.89742706375180E+00
 cg2d: Sum(rhs),rhsMax =  -9.73723857100595E-08  8.90258000132907E+00
 cg2d: Sum(rhs),rhsMax =  -9.73164659967551E-08  8.90769672951691E+00
 cg2d: Sum(rhs),rhsMax =  -9.72612284044772E-08  8.91276878246959E+00
 cg2d: Sum(rhs),rhsMax =  -9.72070637317302E-08  8.91778889429735E+00
 cg2d: Sum(rhs),rhsMax =  -9.71530482729577E-08  8.92275113682099E+00
 cg2d: Sum(rhs),rhsMax =  -9.70993241367069E-08  8.92765100404361E+00
 cg2d: Sum(rhs),rhsMax =  -9.70471916161841E-08  8.93248545016401E+00
 cg2d: Sum(rhs),rhsMax =  -9.69955280538670E-08  8.93725287491615E+00
 cg2d: Sum(rhs),rhsMax =  -9.69441273923621E-08  8.94195305183593E+00
 cg2d: Sum(rhs),rhsMax =  -9.68941833434656E-08  8.94658701582531E+00
 cg2d: Sum(rhs),rhsMax =  -9.68450208915783E-08  8.95115692214719E+00
 cg2d: Sum(rhs),rhsMax =  -9.67962705544778E-08  8.95566589123099E+00
 cg2d: Sum(rhs),rhsMax =  -9.67482165492584E-08  8.96011786358850E+00
 cg2d: Sum(rhs),rhsMax =  -9.67008020325011E-08  8.96451747891563E+00
 cg2d: Sum(rhs),rhsMax =  -9.66539346336504E-08  8.96886998187158E+00
 cg2d: Sum(rhs),rhsMax =  -9.66078843589457E-08  8.97318115409823E+00
 cg2d: Sum(rhs),rhsMax =  -9.65621254067628E-08  8.97745726495199E+00
 cg2d: Sum(rhs),rhsMax =  -9.65159685506478E-08  8.98170502198163E+00
 cg2d: Sum(rhs),rhsMax =  -9.64709272466280E-08  8.98593151889555E+00
 cg2d: Sum(rhs),rhsMax =  -9.64258006774799E-08  8.99014423145949E+00
 cg2d: Sum(rhs),rhsMax =  -9.63806954246138E-08  8.99435085408351E+00
 cg2d: Sum(rhs),rhsMax =  -9.63354978011921E-08  8.99855914272681E+00
 cg2d: Sum(rhs),rhsMax =  -9.62904493917449E-08  9.00277662786875E+00
 cg2d: Sum(rhs),rhsMax =  -9.62449746566563E-08  9.00700998220796E+00
 cg2d: Sum(rhs),rhsMax =  -9.61997557169525E-08  9.01126574761483E+00
 cg2d: Sum(rhs),rhsMax =  -9.61540180810516E-08  9.01555039729210E+00
 cg2d: Sum(rhs),rhsMax =  -9.61077120109621E-08  9.01986971435378E+00
 cg2d: Sum(rhs),rhsMax =  -9.60613775191632E-08  9.02422880815445E+00
 cg2d: Sum(rhs),rhsMax =  -9.60143182737738E-08  9.02863205182447E+00
 cg2d: Sum(rhs),rhsMax =  -9.59668398081703E-08  9.03308295193821E+00
 cg2d: Sum(rhs),rhsMax =  -9.59189492277801E-08  9.03758400719746E+00
 cg2d: Sum(rhs),rhsMax =  -9.58706323217484E-08  9.04213663854453E+00
 cg2d: Sum(rhs),rhsMax =  -9.58215622404168E-08  9.04674109185253E+00
 cg2d: Sum(rhs),rhsMax =  -9.57721724148541E-08  9.05139640217902E+00
 cg2d: Sum(rhs),rhsMax =  -9.57223775799321E-08  9.05610040614876E+00
 cg2d: Sum(rhs),rhsMax =  -9.56718224642827E-08  9.06084979109159E+00
 cg2d: Sum(rhs),rhsMax =  -9.56211039238042E-08  9.06564017672268E+00
 cg2d: Sum(rhs),rhsMax =  -9.55700798499493E-08  9.07046622792088E+00
 cg2d: Sum(rhs),rhsMax =  -9.55189918272481E-08  9.07532179655311E+00
 cg2d: Sum(rhs),rhsMax =  -9.54672145780933E-08  9.08020008054443E+00
 cg2d: Sum(rhs),rhsMax =  -9.54156860188959E-08  9.08509379067778E+00
 cg2d: Sum(rhs),rhsMax =  -9.53640864054250E-08  9.08999532389517E+00
 cg2d: Sum(rhs),rhsMax =  -9.53120391500306E-08  9.09489685062687E+00
 cg2d: Sum(rhs),rhsMax =  -9.52604963799786E-08  9.09979078670731E+00
 cg2d: Sum(rhs),rhsMax =  -9.52091738781746E-08  9.10466952325132E+00
 cg2d: Sum(rhs),rhsMax =  -9.51581995423112E-08  9.10952586151125E+00
 cg2d: Sum(rhs),rhsMax =  -9.51075378452515E-08  9.11435305322486E+00
 cg2d: Sum(rhs),rhsMax =  -9.50568974644739E-08  9.11914489544444E+00
 cg2d: Sum(rhs),rhsMax =  -9.50070173644235E-08  9.12389583482653E+00
 cg2d: Sum(rhs),rhsMax =  -9.49582670273230E-08  9.12860106773695E+00
 cg2d: Sum(rhs),rhsMax =  -9.49094669522310E-08  9.13325671324743E+00
 cg2d: Sum(rhs),rhsMax =  -9.48612637330370E-08  9.13785989332165E+00
 cg2d: Sum(rhs),rhsMax =  -9.48139060596986E-08  9.14240888612431E+00
 cg2d: Sum(rhs),rhsMax =  -9.47671381368309E-08  9.14690322805975E+00
 cg2d: Sum(rhs),rhsMax =  -9.47210025969980E-08  9.15134376400067E+00
 cg2d: Sum(rhs),rhsMax =  -9.46753857533622E-08  9.15573262291172E+00
 cg2d: Sum(rhs),rhsMax =  -9.46305078741716E-08  9.16007311317651E+00
 cg2d: Sum(rhs),rhsMax =  -9.45855020972886E-08  9.16436954661381E+00
 EXTERNAL_FIELDS_LOAD, it=   3600090 : Reading new data, i0,i1=    2    3 (prev=    1    2 )
 DIC_FIELDS_LOAD, it=   3600090 : Reading new data, i0,i1=    2    3 (prev=    1    2 )
 cg2d: Sum(rhs),rhsMax =  -9.45416047670733E-08  9.16862700792054E+00
 cg2d: Sum(rhs),rhsMax =  -9.44977784911316E-08  9.17286965792043E+00
 cg2d: Sum(rhs),rhsMax =  -9.44538882663437E-08  9.17711460232796E+00
 cg2d: Sum(rhs),rhsMax =  -9.44097777733077E-08  9.18137827264839E+00
 cg2d: Sum(rhs),rhsMax =  -9.43655606988614E-08  9.18567586102450E+00
 cg2d: Sum(rhs),rhsMax =  -9.43208533499273E-08  9.19002086507332E+00
 cg2d: Sum(rhs),rhsMax =  -9.42755065125311E-08  9.19442473147613E+00
 cg2d: Sum(rhs),rhsMax =  -9.42294988703907E-08  9.19889660310093E+00
 cg2d: Sum(rhs),rhsMax =  -9.41831217460276E-08  9.20344317156002E+00
 cg2d: Sum(rhs),rhsMax =  -9.41357711781166E-08  9.20806863385625E+00
 cg2d: Sum(rhs),rhsMax =  -9.40875679589226E-08  9.21277472508850E+00
 cg2d: Sum(rhs),rhsMax =  -9.40387323566938E-08  9.21756082935263E+00
 cg2d: Sum(rhs),rhsMax =  -9.39891506845925E-08  9.22242415169496E+00
 cg2d: Sum(rhs),rhsMax =  -9.39387589937724E-08  9.22735992735964E+00
 cg2d: Sum(rhs),rhsMax =  -9.38874578082505E-08  9.23236166048178E+00
 cg2d: Sum(rhs),rhsMax =  -9.38360713576003E-08  9.23742136926884E+00
 cg2d: Sum(rhs),rhsMax =  -9.37847204340869E-08  9.24252982829311E+00
 cg2d: Sum(rhs),rhsMax =  -9.37326518624104E-08  9.24767682825910E+00
 cg2d: Sum(rhs),rhsMax =  -9.36799651185538E-08  9.25285135651627E+00
 cg2d: Sum(rhs),rhsMax =  -9.36278468088858E-08  9.25804181556396E+00
 cg2d: Sum(rhs),rhsMax =  -9.35753803332773E-08  9.26323624437734E+00
 cg2d: Sum(rhs),rhsMax =  -9.35233543941649E-08  9.26842252954541E+00
 cg2d: Sum(rhs),rhsMax =  -9.34712076627875E-08  9.27358855590945E+00
 cg2d: Sum(rhs),rhsMax =  -9.34198851609835E-08  9.27872221865362E+00
 cg2d: Sum(rhs),rhsMax =  -9.33687331894362E-08  9.28381269175841E+00
 cg2d: Sum(rhs),rhsMax =  -9.33183130769066E-08  9.28884990364347E+00
 cg2d: Sum(rhs),rhsMax =  -9.32684542931383E-08  9.29382460831193E+00
 cg2d: Sum(rhs),rhsMax =  -9.32194410552256E-08  9.29872876125425E+00
 cg2d: Sum(rhs),rhsMax =  -9.31711383600486E-08  9.30355578941157E+00
 cg2d: Sum(rhs),rhsMax =  -9.31240364820951E-08  9.30830071441787E+00
 cg2d: Sum(rhs),rhsMax =  -9.30773893514925E-08  9.31296016039586E+00
 cg2d: Sum(rhs),rhsMax =  -9.30318719838397E-08  9.31753230345820E+00
 cg2d: Sum(rhs),rhsMax =  -9.29872783217434E-08  9.32201677457960E+00
 cg2d: Sum(rhs),rhsMax =  -9.29437931063148E-08  9.32641453687162E+00
 cg2d: Sum(rhs),rhsMax =  -9.29007910599466E-08  9.33072777407330E+00
 cg2d: Sum(rhs),rhsMax =  -9.28590253579387E-08  9.33495977832897E+00
 cg2d: Sum(rhs),rhsMax =  -9.28177001924269E-08  9.33911483571782E+00
 cg2d: Sum(rhs),rhsMax =  -9.27770358316593E-08  9.34319809772528E+00
 cg2d: Sum(rhs),rhsMax =  -9.27373591252945E-08  9.34721542637213E+00
 cg2d: Sum(rhs),rhsMax =  -9.26982295368362E-08  9.35117321728378E+00
 cg2d: Sum(rhs),rhsMax =  -9.26594978523099E-08  9.35507820898651E+00
 cg2d: Sum(rhs),rhsMax =  -9.26212777585533E-08  9.35893728101038E+00
 cg2d: Sum(rhs),rhsMax =  -9.25836900478316E-08  9.36275724876052E+00
 cg2d: Sum(rhs),rhsMax =  -9.25467347201447E-08  9.36654466497940E+00
 cg2d: Sum(rhs),rhsMax =  -9.25093388559617E-08  9.37030563739009E+00
 cg2d: Sum(rhs),rhsMax =  -9.24723693174201E-08  9.37404566529748E+00
 cg2d: Sum(rhs),rhsMax =  -9.24358261045199E-08  9.37776950669782E+00
 cg2d: Sum(rhs),rhsMax =  -9.23998015878169E-08  9.38148107939576E+00
 cg2d: Sum(rhs),rhsMax =  -9.23633649563271E-08  9.38518340080342E+00
 cg2d: Sum(rhs),rhsMax =  -9.23271628039402E-08  9.38887856431341E+00
 cg2d: Sum(rhs),rhsMax =  -9.22907545941598E-08  9.39256775253961E+00
 cg2d: Sum(rhs),rhsMax =  -9.22549361348501E-08  9.39625127829926E+00
 cg2d: Sum(rhs),rhsMax =  -9.22186487173349E-08  9.39992865313115E+00
 cg2d: Sum(rhs),rhsMax =  -9.21831713185384E-08  9.40359867110262E+00
 cg2d: Sum(rhs),rhsMax =  -9.21473457538013E-08  9.40725949891390E+00
 cg2d: Sum(rhs),rhsMax =  -9.21119038821416E-08  9.41090875978471E+00
 cg2d: Sum(rhs),rhsMax =  -9.20763412182168E-08  9.41454361858659E+00
 cg2d: Sum(rhs),rhsMax =  -9.20410343496769E-08  9.41816086827301E+00
 cg2d: Sum(rhs),rhsMax =  -9.20060685416502E-08  9.42175701532902E+00
 cg2d: Sum(rhs),rhsMax =  -9.19711879987517E-08  9.42532836100955E+00
 EXTERNAL_FIELDS_LOAD, it=   3600150 : Reading new data, i0,i1=    3    4 (prev=    2    3 )
 DIC_FIELDS_LOAD, it=   3600150 : Reading new data, i0,i1=    3    4 (prev=    2    3 )
 cg2d: Sum(rhs),rhsMax =  -9.19367622032041E-08  9.42887108055882E+00
 cg2d: Sum(rhs),rhsMax =  -9.19030327395376E-08  9.43235832256638E+00
 cg2d: Sum(rhs),rhsMax =  -9.18696727580937E-08  9.43577294710938E+00
 cg2d: Sum(rhs),rhsMax =  -9.18375349101552E-08  9.43909901719340E+00
 cg2d: Sum(rhs),rhsMax =  -9.18056457521743E-08  9.44232226351574E+00
 cg2d: Sum(rhs),rhsMax =  -9.17754618967592E-08  9.44543045713848E+00
 cg2d: Sum(rhs),rhsMax =  -9.17468696570722E-08  9.44841368652191E+00
 cg2d: Sum(rhs),rhsMax =  -9.17188671678559E-08  9.45126453300903E+00
 cg2d: Sum(rhs),rhsMax =  -9.16929749905648E-08  9.45397814472091E+00
 cg2d: Sum(rhs),rhsMax =  -9.16680278351123E-08  9.45655223330268E+00
 cg2d: Sum(rhs),rhsMax =  -9.16445941356869E-08  9.45898700078271E+00
 cg2d: Sum(rhs),rhsMax =  -9.16223754643397E-08  9.46128500172268E+00
 cg2d: Sum(rhs),rhsMax =  -9.16011231311131E-08  9.46345095767279E+00
 cg2d: Sum(rhs),rhsMax =  -9.15811568802383E-08  9.46549153513779E+00
 cg2d: Sum(rhs),rhsMax =  -9.15625619768434E-08  9.46741508859273E+00
 cg2d: Sum(rhs),rhsMax =  -9.15451252581079E-08  9.46923137659912E+00
 cg2d: Sum(rhs),rhsMax =  -9.15285980340741E-08  9.47095124324780E+00
 cg2d: Sum(rhs),rhsMax =  -9.15126108225195E-08  9.47258633929544E+00
 cg2d: Sum(rhs),rhsMax =  -9.14974762622478E-08  9.47414881667898E+00
 cg2d: Sum(rhs),rhsMax =  -9.14831588261222E-08  9.47565102854520E+00
 cg2d: Sum(rhs),rhsMax =  -9.14691185016636E-08  9.47710524161440E+00
 cg2d: Sum(rhs),rhsMax =  -9.14552913400257E-08  9.47852337330871E+00
 cg2d: Sum(rhs),rhsMax =  -9.14417910280463E-08  9.47991675839448E+00
 cg2d: Sum(rhs),rhsMax =  -9.14288023068366E-08  9.48129594936036E+00
 cg2d: Sum(rhs),rhsMax =  -9.14153162057119E-08  9.48267055268677E+00
 cg2d: Sum(rhs),rhsMax =  -9.14016951014673E-08  9.48404910672501E+00
 cg2d: Sum(rhs),rhsMax =  -9.13883866360266E-08  9.48543898881096E+00
 cg2d: Sum(rhs),rhsMax =  -9.13749147457565E-08  9.48684634838855E+00
 cg2d: Sum(rhs),rhsMax =  -9.13611231112554E-08  9.48827608016959E+00
 cg2d: Sum(rhs),rhsMax =  -9.13465854068818E-08  9.48973182637241E+00
 cg2d: Sum(rhs),rhsMax =  -9.13324456064402E-08  9.49121598932757E+00
 cg2d: Sum(rhs),rhsMax =  -9.13176805283911E-08  9.49272976482376E+00
 cg2d: Sum(rhs),rhsMax =  -9.13029793991882E-08  9.49427318407705E+00
 cg2d: Sum(rhs),rhsMax =  -9.12876600978052E-08  9.49584517202971E+00
 cg2d: Sum(rhs),rhsMax =  -9.12722768475760E-08  9.49744362566448E+00
 cg2d: Sum(rhs),rhsMax =  -9.12563962174318E-08  9.49906550905340E+00
 cg2d: Sum(rhs),rhsMax =  -9.12406292741252E-08  9.50070696299551E+00
 cg2d: Sum(rhs),rhsMax =  -9.12245567974423E-08  9.50236342680402E+00
 cg2d: Sum(rhs),rhsMax =  -9.12086122184519E-08  9.50402976802920E+00
 cg2d: Sum(rhs),rhsMax =  -9.11920636781360E-08  9.50570042893596E+00
 cg2d: Sum(rhs),rhsMax =  -9.11760835720088E-08  9.50736956748404E+00
 cg2d: Sum(rhs),rhsMax =  -9.11599897790438E-08  9.50903122489705E+00
 cg2d: Sum(rhs),rhsMax =  -9.11439812512072E-08  9.51067944299842E+00
 cg2d: Sum(rhs),rhsMax =  -9.11286619498242E-08  9.51230836255520E+00
 cg2d: Sum(rhs),rhsMax =  -9.11128452685261E-08  9.51391232343393E+00
 cg2d: Sum(rhs),rhsMax =  -9.10978172896648E-08  9.51548598638282E+00
 cg2d: Sum(rhs),rhsMax =  -9.10825903588375E-08  9.51702443978652E+00
 cg2d: Sum(rhs),rhsMax =  -9.10679744947629E-08  9.51852327194360E+00
 cg2d: Sum(rhs),rhsMax =  -9.10538062726118E-08  9.51997861079381E+00
 cg2d: Sum(rhs),rhsMax =  -9.10403272769145E-08  9.52138713289450E+00
 cg2d: Sum(rhs),rhsMax =  -9.10271680254482E-08  9.52274605554116E+00
 cg2d: Sum(rhs),rhsMax =  -9.10143498344951E-08  9.52405313717331E+00
 cg2d: Sum(rhs),rhsMax =  -9.10022919242692E-08  9.52530666028232E+00
 cg2d: Sum(rhs),rhsMax =  -9.09905324419924E-08  9.52650541109617E+00
 cg2d: Sum(rhs),rhsMax =  -9.09794692915966E-08  9.52764864727963E+00
 cg2d: Sum(rhs),rhsMax =  -9.09689816808168E-08  9.52873605079492E+00
 cg2d: Sum(rhs),rhsMax =  -9.09588422359775E-08  9.52976767849440E+00
 cg2d: Sum(rhs),rhsMax =  -9.09493280687457E-08  9.53074391639987E+00
 cg2d: Sum(rhs),rhsMax =  -9.09404391791213E-08  9.53166530103624E+00
 cg2d: Sum(rhs),rhsMax =  -9.09316284491979E-08  9.53253252588939E+00
 EXTERNAL_FIELDS_LOAD, it=   3600210 : Reading new data, i0,i1=    4    5 (prev=    3    4 )
 DIC_FIELDS_LOAD, it=   3600210 : Reading new data, i0,i1=    4    5 (prev=    3    4 )
 cg2d: Sum(rhs),rhsMax =  -9.09236845814121E-08  9.53334634295211E+00
 cg2d: Sum(rhs),rhsMax =  -9.09162238826866E-08  9.53412016630968E+00
 cg2d: Sum(rhs),rhsMax =  -9.09088555545168E-08  9.53486144691540E+00
 cg2d: Sum(rhs),rhsMax =  -9.09020556605356E-08  9.53557668814411E+00
 cg2d: Sum(rhs),rhsMax =  -9.08950781308704E-08  9.53626990934916E+00
 cg2d: Sum(rhs),rhsMax =  -9.08885269268467E-08  9.53694479201801E+00
 cg2d: Sum(rhs),rhsMax =  -9.08819686173956E-08  9.53760402798875E+00
 cg2d: Sum(rhs),rhsMax =  -9.08758792661502E-08  9.53824943192211E+00
 cg2d: Sum(rhs),rhsMax =  -9.08692001644340E-08  9.53888215688552E+00
 cg2d: Sum(rhs),rhsMax =  -9.08633310814366E-08  9.53950304357000E+00
 cg2d: Sum(rhs),rhsMax =  -9.08575117364308E-08  9.54011304176576E+00
 cg2d: Sum(rhs),rhsMax =  -9.08516142317239E-08  9.54071301635899E+00
 cg2d: Sum(rhs),rhsMax =  -9.08458943627011E-08  9.54130322912294E+00
 cg2d: Sum(rhs),rhsMax =  -9.08400252797037E-08  9.54188272003942E+00
 cg2d: Sum(rhs),rhsMax =  -9.08349306882883E-08  9.54244934290944E+00
 cg2d: Sum(rhs),rhsMax =  -9.08295305634965E-08  9.54299999628384E+00
 cg2d: Sum(rhs),rhsMax =  -9.08241872821236E-08  9.54353092308816E+00
 cg2d: Sum(rhs),rhsMax =  -9.08189861092978E-08  9.54403796863502E+00
 cg2d: Sum(rhs),rhsMax =  -9.08142894218145E-08  9.54451678452915E+00
 cg2d: Sum(rhs),rhsMax =  -9.08097916862971E-08  9.54496303374895E+00
 cg2d: Sum(rhs),rhsMax =  -9.08056705384297E-08  9.54537256688658E+00
 cg2d: Sum(rhs),rhsMax =  -9.08016417611179E-08  9.54574155534994E+00
 cg2d: Sum(rhs),rhsMax =  -9.07979256226099E-08  9.54606657177462E+00
 cg2d: Sum(rhs),rhsMax =  -9.07952681927782E-08  9.54634467959792E+00
 cg2d: Sum(rhs),rhsMax =  -9.07924189164078E-08  9.54657345840157E+00
 cg2d: Sum(rhs),rhsMax =  -9.07902162339269E-08  9.54675102924543E+00
 cg2d: Sum(rhs),rhsMax =  -9.07886743561903E-08  9.54687605379506E+00
 cg2d: Sum(rhs),rhsMax =  -9.07877648614885E-08  9.54694771403842E+00
 cg2d: Sum(rhs),rhsMax =  -9.07869193156330E-08  9.54696566951997E+00
 cg2d: Sum(rhs),rhsMax =  -9.07865995714019E-08  9.54692999068711E+00
 cg2d: Sum(rhs),rhsMax =  -9.07872106381546E-08  9.54684108541375E+00
 cg2d: Sum(rhs),rhsMax =  -9.07884682987969E-08  9.54669963264824E+00
 cg2d: Sum(rhs),rhsMax =  -9.07898467517043E-08  9.54650651972953E+00
 cg2d: Sum(rhs),rhsMax =  -9.07915449488428E-08  9.54626274758502E+00
 cg2d: Sum(rhs),rhsMax =  -9.07941455352557E-08  9.54596935750525E+00
 cg2d: Sum(rhs),rhsMax =  -9.07970800767544E-08  9.54562738075971E+00
 cg2d: Sum(rhs),rhsMax =  -9.08000501453898E-08  9.54523778248193E+00
 cg2d: Sum(rhs),rhsMax =  -9.08038089164620E-08  9.54480140259877E+00
 cg2d: Sum(rhs),rhsMax =  -9.08078732209106E-08  9.54431888382345E+00
 cg2d: Sum(rhs),rhsMax =  -9.08128896526250E-08  9.54379063440704E+00
 cg2d: Sum(rhs),rhsMax =  -9.08179274006216E-08  9.54321682610369E+00
 cg2d: Sum(rhs),rhsMax =  -9.08231072571652E-08  9.54259741627488E+00
 cg2d: Sum(rhs),rhsMax =  -9.08294239820862E-08  9.54193218180504E+00
 cg2d: Sum(rhs),rhsMax =  -9.08357407070071E-08  9.54122075566689E+00
 cg2d: Sum(rhs),rhsMax =  -9.08426116552619E-08  9.54046266149910E+00
 cg2d: Sum(rhs),rhsMax =  -9.08497668206110E-08  9.53965734943055E+00
 cg2d: Sum(rhs),rhsMax =  -9.08576467395505E-08  9.53880424419014E+00
 cg2d: Sum(rhs),rhsMax =  -9.08659032461401E-08  9.53790282192021E+00
 cg2d: Sum(rhs),rhsMax =  -9.08746713434994E-08  9.53695268180845E+00
 cg2d: Sum(rhs),rhsMax =  -9.08840078750472E-08  9.53595362230667E+00
 cg2d: Sum(rhs),rhsMax =  -9.08936215182621E-08  9.53490571447803E+00
 cg2d: Sum(rhs),rhsMax =  -9.09042654484438E-08  9.53380930168364E+00
 cg2d: Sum(rhs),rhsMax =  -9.09145470018302E-08  9.53266493640869E+00
 cg2d: Sum(rhs),rhsMax =  -9.09259227910297E-08  9.53147332889492E+00
 cg2d: Sum(rhs),rhsMax =  -9.09384141323244E-08  9.53023537646442E+00
 cg2d: Sum(rhs),rhsMax =  -9.09505217805417E-08  9.52895220993865E+00
 cg2d: Sum(rhs),rhsMax =  -9.09629278567081E-08  9.52762520262973E+00
 cg2d: Sum(rhs),rhsMax =  -9.09757815747980E-08  9.52625594300855E+00
 cg2d: Sum(rhs),rhsMax =  -9.09892747813501E-08  9.52484621149773E+00
 cg2d: Sum(rhs),rhsMax =  -9.10029882561503E-08  9.52339794221070E+00
 EXTERNAL_FIELDS_LOAD, it=   3600270 : Reading new data, i0,i1=    5    6 (prev=    4    5 )
 DIC_FIELDS_LOAD, it=   3600270 : Reading new data, i0,i1=    5    6 (prev=    4    5 )
 cg2d: Sum(rhs),rhsMax =  -9.10169930534721E-08  9.52191318167782E+00
 cg2d: Sum(rhs),rhsMax =  -9.10311257484864E-08  9.52041761022813E+00
 cg2d: Sum(rhs),rhsMax =  -9.10455213443129E-08  9.51892843351038E+00
 cg2d: Sum(rhs),rhsMax =  -9.10593485059508E-08  9.51746258399289E+00
 cg2d: Sum(rhs),rhsMax =  -9.10729625047679E-08  9.51603636817957E+00
 cg2d: Sum(rhs),rhsMax =  -9.10860507019606E-08  9.51466517931999E+00
 cg2d: Sum(rhs),rhsMax =  -9.10986344138109E-08  9.51336322967766E+00
 cg2d: Sum(rhs),rhsMax =  -9.11102233658312E-08  9.51214329321166E+00
 cg2d: Sum(rhs),rhsMax =  -9.11212367782355E-08  9.51101645114812E+00
 cg2d: Sum(rhs),rhsMax =  -9.11308219997409E-08  9.50999185515969E+00
 cg2d: Sum(rhs),rhsMax =  -9.11397606273567E-08  9.50907652378690E+00
 cg2d: Sum(rhs),rhsMax =  -9.11473847509114E-08  9.50827517814543E+00
 cg2d: Sum(rhs),rhsMax =  -9.11540354309182E-08  9.50759014752173E+00
 cg2d: Sum(rhs),rhsMax =  -9.11595421371203E-08  9.50702134377118E+00
 cg2d: Sum(rhs),rhsMax =  -9.11640682943471E-08  9.50656629011210E+00
 cg2d: Sum(rhs),rhsMax =  -9.11673012637948E-08  9.50622019182364E+00
 cg2d: Sum(rhs),rhsMax =  -9.11696744765322E-08  9.50597606771963E+00
 cg2d: Sum(rhs),rhsMax =  -9.11708539774736E-08  9.50582494250500E+00
 cg2d: Sum(rhs),rhsMax =  -9.11716497853376E-08  9.50575608648473E+00
 cg2d: Sum(rhs),rhsMax =  -9.11714224116622E-08  9.50575729587021E+00
 cg2d: Sum(rhs),rhsMax =  -9.11708468720462E-08  9.50581523373235E+00
 cg2d: Sum(rhs),rhsMax =  -9.11699018502077E-08  9.50591575069248E+00
 cg2d: Sum(rhs),rhsMax =  -9.11685589244371E-08  9.50604420974297E+00
 cg2d: Sum(rhs),rhsMax =  -9.11669744141363E-08  9.50618583284504E+00
 cg2d: Sum(rhs),rhsMax =  -9.11656883317846E-08  9.50632606101357E+00
 cg2d: Sum(rhs),rhsMax =  -9.11643525114414E-08  9.50645090757042E+00
 cg2d: Sum(rhs),rhsMax =  -9.11635567035773E-08  9.50654729113363E+00
 cg2d: Sum(rhs),rhsMax =  -9.11632938027651E-08  9.50660334354173E+00
 cg2d: Sum(rhs),rhsMax =  -9.11633009081925E-08  9.50660868062301E+00
 cg2d: Sum(rhs),rhsMax =  -9.11639332912273E-08  9.50655462562515E+00
 cg2d: Sum(rhs),rhsMax =  -9.11649706836215E-08  9.50643436311089E+00
 cg2d: Sum(rhs),rhsMax =  -9.11672302095212E-08  9.50624304674150E+00
 cg2d: Sum(rhs),rhsMax =  -9.11696460548228E-08  9.50597781905916E+00
 cg2d: Sum(rhs),rhsMax =  -9.11727440211507E-08  9.50563777710892E+00
 cg2d: Sum(rhs),rhsMax =  -9.11770854372662E-08  9.50522393135291E+00
 cg2d: Sum(rhs),rhsMax =  -9.11816186999204E-08  9.50473911463816E+00
 cg2d: Sum(rhs),rhsMax =  -9.11870614572763E-08  9.50418773930678E+00
 cg2d: Sum(rhs),rhsMax =  -9.11928168534359E-08  9.50357558691374E+00
 cg2d: Sum(rhs),rhsMax =  -9.11992827923314E-08  9.50290964447458E+00
 cg2d: Sum(rhs),rhsMax =  -9.12065729608003E-08  9.50219791542795E+00
 cg2d: Sum(rhs),rhsMax =  -9.12139270781154E-08  9.50144918276843E+00
 cg2d: Sum(rhs),rhsMax =  -9.12212811954305E-08  9.50067274580360E+00
 cg2d: Sum(rhs),rhsMax =  -9.12293955934729E-08  9.49987815929010E+00
 cg2d: Sum(rhs),rhsMax =  -9.12369131356172E-08  9.49907498366882E+00
 cg2d: Sum(rhs),rhsMax =  -9.12447788437021E-08  9.49827255755378E+00
 cg2d: Sum(rhs),rhsMax =  -9.12528008711888E-08  9.49747978836020E+00
 cg2d: Sum(rhs),rhsMax =  -9.12602686753416E-08  9.49670496341604E+00
 cg2d: Sum(rhs),rhsMax =  -9.12679780640246E-08  9.49595558374171E+00
 cg2d: Sum(rhs),rhsMax =  -9.12747850634332E-08  9.49523821505845E+00
 cg2d: Sum(rhs),rhsMax =  -9.12811941589098E-08  9.49455836839740E+00
 cg2d: Sum(rhs),rhsMax =  -9.12878306280618E-08  9.49392042323925E+00
 cg2d: Sum(rhs),rhsMax =  -9.12937139219139E-08  9.49332754785973E+00
 cg2d: Sum(rhs),rhsMax =  -9.12992632606802E-08  9.49278165465699E+00
 cg2d: Sum(rhs),rhsMax =  -9.13035833605136E-08  9.49228339433203E+00
 cg2d: Sum(rhs),rhsMax =  -9.13086424247922E-08  9.49183218209292E+00
 cg2d: Sum(rhs),rhsMax =  -9.13127422563775E-08  9.49142625728328E+00
 cg2d: Sum(rhs),rhsMax =  -9.13163518134752E-08  9.49106276286301E+00
 cg2d: Sum(rhs),rhsMax =  -9.13194782015125E-08  9.49073783789306E+00
 cg2d: Sum(rhs),rhsMax =  -9.13225406407037E-08  9.49044672400271E+00
 cg2d: Sum(rhs),rhsMax =  -9.13253046519458E-08  9.49018390323782E+00
 EXTERNAL_FIELDS_LOAD, it=   3600330 : Reading new data, i0,i1=    6    7 (prev=    5    6 )
 DIC_FIELDS_LOAD, it=   3600330 : Reading new data, i0,i1=    6    7 (prev=    5    6 )
 cg2d: Sum(rhs),rhsMax =  -9.13276210212643E-08  9.48994325700856E+00
 cg2d: Sum(rhs),rhsMax =  -9.13303352945150E-08  9.48970801758053E+00
 cg2d: Sum(rhs),rhsMax =  -9.13328221940901E-08  9.48946471682098E+00
 cg2d: Sum(rhs),rhsMax =  -9.13353943587936E-08  9.48919980375378E+00
 cg2d: Sum(rhs),rhsMax =  -9.13383644274290E-08  9.48889996251626E+00
 cg2d: Sum(rhs),rhsMax =  -9.13418460868343E-08  9.48855235316500E+00
 cg2d: Sum(rhs),rhsMax =  -9.13461093432488E-08  9.48814487205053E+00
 cg2d: Sum(rhs),rhsMax =  -9.13508344524416E-08  9.48766639266868E+00
 cg2d: Sum(rhs),rhsMax =  -9.13563624749258E-08  9.48710698236420E+00
 cg2d: Sum(rhs),rhsMax =  -9.13624518261713E-08  9.48645808347463E+00
 cg2d: Sum(rhs),rhsMax =  -9.13698130489138E-08  9.48571268422533E+00
 cg2d: Sum(rhs),rhsMax =  -9.13783111400335E-08  9.48486545850383E+00
 cg2d: Sum(rhs),rhsMax =  -9.13876760932908E-08  9.48391285858374E+00
 cg2d: Sum(rhs),rhsMax =  -9.13977800109933E-08  9.48285315351105E+00
 cg2d: Sum(rhs),rhsMax =  -9.14093334358768E-08  9.48168641391458E+00
 cg2d: Sum(rhs),rhsMax =  -9.14215760872139E-08  9.48041445516485E+00
 cg2d: Sum(rhs),rhsMax =  -9.14348703418000E-08  9.47904073781749E+00
 cg2d: Sum(rhs),rhsMax =  -9.14490314585237E-08  9.47757022510765E+00
 cg2d: Sum(rhs),rhsMax =  -9.14641802296501E-08  9.47600920384239E+00
 cg2d: Sum(rhs),rhsMax =  -9.14802384954783E-08  9.47436507523804E+00
 cg2d: Sum(rhs),rhsMax =  -9.14970428311790E-08  9.47264612546539E+00
 cg2d: Sum(rhs),rhsMax =  -9.15143658630768E-08  9.47086128598380E+00
 cg2d: Sum(rhs),rhsMax =  -9.15317244221114E-08  9.46901988541289E+00
 cg2d: Sum(rhs),rhsMax =  -9.15503548526431E-08  9.46713139755286E+00
 cg2d: Sum(rhs),rhsMax =  -9.15688005420634E-08  9.46520519129246E+00
 cg2d: Sum(rhs),rhsMax =  -9.15879354579374E-08  9.46325027783096E+00
 cg2d: Sum(rhs),rhsMax =  -9.16070561629567E-08  9.46127510172983E+00
 cg2d: Sum(rhs),rhsMax =  -9.16269016215665E-08  9.45928736176468E+00
 cg2d: Sum(rhs),rhsMax =  -9.16458375854745E-08  9.45729384446051E+00
 cg2d: Sum(rhs),rhsMax =  -9.16652354021608E-08  9.45530032221759E+00
 cg2d: Sum(rhs),rhsMax =  -9.16847469056847E-08  9.45331147339530E+00
 cg2d: Sum(rhs),rhsMax =  -9.17041660386531E-08  9.45133082537812E+00
 cg2d: Sum(rhs),rhsMax =  -9.17234714847837E-08  9.44936073119909E+00
 cg2d: Sum(rhs),rhsMax =  -9.17423008672813E-08  9.44740238220463E+00
 cg2d: Sum(rhs),rhsMax =  -9.17614002560185E-08  9.44545585645758E+00
 cg2d: Sum(rhs),rhsMax =  -9.17801870059520E-08  9.44352020252140E+00
 cg2d: Sum(rhs),rhsMax =  -9.17989737558855E-08  9.44159355733174E+00
 cg2d: Sum(rhs),rhsMax =  -9.18179097197935E-08  9.43967327626014E+00
 cg2d: Sum(rhs),rhsMax =  -9.18367177860091E-08  9.43775607395104E+00
 cg2d: Sum(rhs),rhsMax =  -9.18552629514124E-08  9.43583817490269E+00
 cg2d: Sum(rhs),rhsMax =  -9.18742912858761E-08  9.43391546318717E+00
 cg2d: Sum(rhs),rhsMax =  -9.18933977800407E-08  9.43198362529795E+00
 cg2d: Sum(rhs),rhsMax =  -9.19123053222393E-08  9.43003828806143E+00
 cg2d: Sum(rhs),rhsMax =  -9.19319091963189E-08  9.42807514245689E+00
 cg2d: Sum(rhs),rhsMax =  -9.19516196518089E-08  9.42609005034801E+00
 cg2d: Sum(rhs),rhsMax =  -9.19711453661876E-08  9.42407914155286E+00
 cg2d: Sum(rhs),rhsMax =  -9.19916374186869E-08  9.42203890101561E+00
 cg2d: Sum(rhs),rhsMax =  -9.20122005254598E-08  9.41996625280574E+00
 cg2d: Sum(rhs),rhsMax =  -9.20328773190704E-08  9.41785862954787E+00
 cg2d: Sum(rhs),rhsMax =  -9.20541722848611E-08  9.41571402403211E+00
 cg2d: Sum(rhs),rhsMax =  -9.20761920042423E-08  9.41353104362712E+00
 cg2d: Sum(rhs),rhsMax =  -9.20975224971698E-08  9.41130897700722E+00
 cg2d: Sum(rhs),rhsMax =  -9.21202243375774E-08  9.40904782014454E+00
 cg2d: Sum(rhs),rhsMax =  -9.21427556477283E-08  9.40674826682519E+00
 cg2d: Sum(rhs),rhsMax =  -9.21658624974953E-08  9.40441167656376E+00
 cg2d: Sum(rhs),rhsMax =  -9.21897651551262E-08  9.40204003109270E+00
 cg2d: Sum(rhs),rhsMax =  -9.22136393910478E-08  9.39963588692061E+00
 cg2d: Sum(rhs),rhsMax =  -9.22377765277815E-08  9.39720232327049E+00
 cg2d: Sum(rhs),rhsMax =  -9.22617147125493E-08  9.39474287623570E+00
 cg2d: Sum(rhs),rhsMax =  -9.22866476571471E-08  9.39226147078604E+00
 EXTERNAL_FIELDS_LOAD, it=   3600390 : Reading new data, i0,i1=    7    8 (prev=    6    7 )
 DIC_FIELDS_LOAD, it=   3600390 : Reading new data, i0,i1=    7    8 (prev=    6    7 )
 cg2d: Sum(rhs),rhsMax =  -9.23120353490958E-08  9.38976233427929E+00
 cg2d: Sum(rhs),rhsMax =  -9.23369185557021E-08  9.38724381347799E+00
 cg2d: Sum(rhs),rhsMax =  -9.23620930848301E-08  9.38470550458213E+00
 cg2d: Sum(rhs),rhsMax =  -9.23878431535741E-08  9.38214640732935E+00
 cg2d: Sum(rhs),rhsMax =  -9.24133303215058E-08  9.37956498127073E+00
 cg2d: Sum(rhs),rhsMax =  -9.24395564538827E-08  9.37695924403383E+00
 cg2d: Sum(rhs),rhsMax =  -9.24659673273709E-08  9.37432689628576E+00
 cg2d: Sum(rhs),rhsMax =  -9.24926268908166E-08  9.37166545130188E+00
 cg2d: Sum(rhs),rhsMax =  -9.25199330481519E-08  9.36897236493602E+00
 cg2d: Sum(rhs),rhsMax =  -9.25472107837777E-08  9.36624514198210E+00
 cg2d: Sum(rhs),rhsMax =  -9.25749148450450E-08  9.36348144222541E+00
 cg2d: Sum(rhs),rhsMax =  -9.26027894365689E-08  9.36067916467522E+00
 cg2d: Sum(rhs),rhsMax =  -9.26316801042049E-08  9.35783651518778E+00
 cg2d: Sum(rhs),rhsMax =  -9.26604357687211E-08  9.35495205473915E+00
 cg2d: Sum(rhs),rhsMax =  -9.26899872411013E-08  9.35202472862356E+00
 cg2d: Sum(rhs),rhsMax =  -9.27198087197212E-08  9.34905386050751E+00
 cg2d: Sum(rhs),rhsMax =  -9.27502270542391E-08  9.34603912446753E+00
 cg2d: Sum(rhs),rhsMax =  -9.27809580275607E-08  9.34298052032945E+00
 cg2d: Sum(rhs),rhsMax =  -9.28122148025068E-08  9.33987837125357E+00
 cg2d: Sum(rhs),rhsMax =  -9.28438836922396E-08  9.33673332003228E+00
 cg2d: Sum(rhs),rhsMax =  -9.28756591633828E-08  9.33354631509102E+00
 cg2d: Sum(rhs),rhsMax =  -9.29085999246126E-08  9.33031856217985E+00
 cg2d: Sum(rhs),rhsMax =  -9.29414056827227E-08  9.32705144157814E+00
 cg2d: Sum(rhs),rhsMax =  -9.29742824951063E-08  9.32374640924821E+00
 cg2d: Sum(rhs),rhsMax =  -9.30079835370634E-08  9.32040491207867E+00
 cg2d: Sum(rhs),rhsMax =  -9.30417982658582E-08  9.31702830536998E+00
 cg2d: Sum(rhs),rhsMax =  -9.30764798567907E-08  9.31361778906816E+00
 cg2d: Sum(rhs),rhsMax =  -9.31104011669959E-08  9.31017435680010E+00
 cg2d: Sum(rhs),rhsMax =  -9.31454593455783E-08  9.30669874783390E+00
 cg2d: Sum(rhs),rhsMax =  -9.31809367443748E-08  9.30319140183628E+00
 cg2d: Sum(rhs),rhsMax =  -9.32159238686836E-08  9.29965242032067E+00
 cg2d: Sum(rhs),rhsMax =  -9.32518702256857E-08  9.29608155387300E+00
 cg2d: Sum(rhs),rhsMax =  -9.32883352788849E-08  9.29247816276956E+00
 cg2d: Sum(rhs),rhsMax =  -9.33245232204172E-08  9.28884120452690E+00
 cg2d: Sum(rhs),rhsMax =  -9.33613577558390E-08  9.28516924951164E+00
 cg2d: Sum(rhs),rhsMax =  -9.33982562401070E-08  9.28146051649491E+00
 cg2d: Sum(rhs),rhsMax =  -9.34364479121541E-08  9.27771291851975E+00
 cg2d: Sum(rhs),rhsMax =  -9.34740143065937E-08  9.27392411497484E+00
 cg2d: Sum(rhs),rhsMax =  -9.35126251988549E-08  9.27009157616147E+00
 cg2d: Sum(rhs),rhsMax =  -9.35518329470142E-08  9.26621266064052E+00
 cg2d: Sum(rhs),rhsMax =  -9.35912964905583E-08  9.26228469753356E+00
 cg2d: Sum(rhs),rhsMax =  -9.36311082000429E-08  9.25830502540661E+00
 cg2d: Sum(rhs),rhsMax =  -9.36718080879473E-08  9.25427104022615E+00
 cg2d: Sum(rhs),rhsMax =  -9.37130835154676E-08  9.25018025806528E+00
 cg2d: Sum(rhs),rhsMax =  -9.37547639523473E-08  9.24603037476154E+00
 cg2d: Sum(rhs),rhsMax =  -9.37974888870485E-08  9.24181932462259E+00
 cg2d: Sum(rhs),rhsMax =  -9.38402919814507E-08  9.23754533703139E+00
 cg2d: Sum(rhs),rhsMax =  -9.38843172093584E-08  9.23320698439808E+00
 cg2d: Sum(rhs),rhsMax =  -9.39290814017113E-08  9.22880321317793E+00
 cg2d: Sum(rhs),rhsMax =  -9.39739734917566E-08  9.22433335164241E+00
 cg2d: Sum(rhs),rhsMax =  -9.40200521881707E-08  9.21979710173837E+00
 cg2d: Sum(rhs),rhsMax =  -9.40667135296280E-08  9.21519452384442E+00
 cg2d: Sum(rhs),rhsMax =  -9.41140712029664E-08  9.21052602027441E+00
 cg2d: Sum(rhs),rhsMax =  -9.41621181027585E-08  9.20579231856880E+00
 cg2d: Sum(rhs),rhsMax =  -9.42108115964402E-08  9.20099445172383E+00
 cg2d: Sum(rhs),rhsMax =  -9.42603506359774E-08  9.19613373409314E+00
 cg2d: Sum(rhs),rhsMax =  -9.43106570616692E-08  9.19121172891709E+00
 cg2d: Sum(rhs),rhsMax =  -9.43619582471911E-08  9.18623021276131E+00
 cg2d: Sum(rhs),rhsMax =  -9.44129254776271E-08  9.18119115032627E+00
 cg2d: Sum(rhs),rhsMax =  -9.44648874678933E-08  9.17609666859133E+00
 EXTERNAL_FIELDS_LOAD, it=   3600450 : Reading new data, i0,i1=    8    9 (prev=    7    8 )
 DIC_FIELDS_LOAD, it=   3600450 : Reading new data, i0,i1=    8    9 (prev=    7    8 )
 cg2d: Sum(rhs),rhsMax =  -9.45180929079470E-08  9.17094900539886E+00
 cg2d: Sum(rhs),rhsMax =  -9.45713196642828E-08  9.16576037761048E+00
 cg2d: Sum(rhs),rhsMax =  -9.46249869571147E-08  9.16053907873528E+00
 cg2d: Sum(rhs),rhsMax =  -9.46787679367844E-08  9.15529303788953E+00
 cg2d: Sum(rhs),rhsMax =  -9.47327123412833E-08  9.15002961005962E+00
 cg2d: Sum(rhs),rhsMax =  -9.47873814993727E-08  9.14475542293395E+00
 cg2d: Sum(rhs),rhsMax =  -9.48415888046839E-08  9.13947626776025E+00
 cg2d: Sum(rhs),rhsMax =  -9.48963148061921E-08  9.13419703804716E+00
 cg2d: Sum(rhs),rhsMax =  -9.49505718494947E-08  9.12892171232682E+00
 cg2d: Sum(rhs),rhsMax =  -9.50055820680973E-08  9.12365335338700E+00
 cg2d: Sum(rhs),rhsMax =  -9.50602441207593E-08  9.11839411243203E+00
 cg2d: Sum(rhs),rhsMax =  -9.51149274897034E-08  9.11314523538299E+00
 cg2d: Sum(rhs),rhsMax =  -9.51689713701853E-08  9.10790707134369E+00
 cg2d: Sum(rhs),rhsMax =  -9.52241663298992E-08  9.10267908920085E+00
 cg2d: Sum(rhs),rhsMax =  -9.52785583763216E-08  9.09745990818067E+00
 cg2d: Sum(rhs),rhsMax =  -9.53332346398383E-08  9.09224734512777E+00
 cg2d: Sum(rhs),rhsMax =  -9.53879322196372E-08  9.08703847736888E+00
 cg2d: Sum(rhs),rhsMax =  -9.54423811094784E-08  9.08182972075513E+00
 cg2d: Sum(rhs),rhsMax =  -9.54974623823546E-08  9.07661692347198E+00
 cg2d: Sum(rhs),rhsMax =  -9.55527141854873E-08  9.07139547821490E+00
 cg2d: Sum(rhs),rhsMax =  -9.56078878289190E-08  9.06616045270155E+00
 cg2d: Sum(rhs),rhsMax =  -9.56632462134621E-08  9.06090673305150E+00
 cg2d: Sum(rhs),rhsMax =  -9.57190593453561E-08  9.05562917574046E+00
 cg2d: Sum(rhs),rhsMax =  -9.57753982788745E-08  9.05032276301453E+00
 cg2d: Sum(rhs),rhsMax =  -9.58323127520089E-08  9.04498274779792E+00
 cg2d: Sum(rhs),rhsMax =  -9.58890566948867E-08  9.03960479010611E+00
 cg2d: Sum(rhs),rhsMax =  -9.59469090844323E-08  9.03418508103277E+00
 cg2d: Sum(rhs),rhsMax =  -9.60046975251316E-08  9.02872044807494E+00
 cg2d: Sum(rhs),rhsMax =  -9.60634949365158E-08  9.02320843719522E+00
 cg2d: Sum(rhs),rhsMax =  -9.61234505325592E-08  9.01764736350553E+00
 cg2d: Sum(rhs),rhsMax =  -9.61829158541150E-08  9.01203632711249E+00
 cg2d: Sum(rhs),rhsMax =  -9.62436175200310E-08  9.00637519234014E+00
 cg2d: Sum(rhs),rhsMax =  -9.63047241953063E-08  9.00066454100738E+00
 cg2d: Sum(rhs),rhsMax =  -9.63663566722062E-08  8.99490560644289E+00
 cg2d: Sum(rhs),rhsMax =  -9.64286215321408E-08  8.98910019830229E+00
 cg2d: Sum(rhs),rhsMax =  -9.64914832479735E-08  8.98325060608421E+00
 cg2d: Sum(rhs),rhsMax =  -9.65549631359863E-08  8.97735949860674E+00
 cg2d: Sum(rhs),rhsMax =  -9.66191180395981E-08  8.97142982445055E+00
 cg2d: Sum(rhs),rhsMax =  -9.66832942594920E-08  8.96546471599943E+00
 cg2d: Sum(rhs),rhsMax =  -9.67482520763951E-08  8.95946740124540E+00
 cg2d: Sum(rhs),rhsMax =  -9.68132098932983E-08  8.95344112713886E+00
 cg2d: Sum(rhs),rhsMax =  -9.68790274669118E-08  8.94738909112794E+00
 cg2d: Sum(rhs),rhsMax =  -9.69447810916790E-08  8.94131438207753E+00
 cg2d: Sum(rhs),rhsMax =  -9.70111884157632E-08  8.93521991327319E+00
 cg2d: Sum(rhs),rhsMax =  -9.70773115227530E-08  8.92910833888471E+00
 cg2d: Sum(rhs),rhsMax =  -9.71445075492738E-08  8.92298199747039E+00
 cg2d: Sum(rhs),rhsMax =  -9.72113554098541E-08  8.91684290726808E+00
 cg2d: Sum(rhs),rhsMax =  -9.72787574937684E-08  8.91069264633776E+00
 cg2d: Sum(rhs),rhsMax =  -9.73459535202892E-08  8.90453228797114E+00
 cg2d: Sum(rhs),rhsMax =  -9.74135971887335E-08  8.89836249714105E+00
 cg2d: Sum(rhs),rhsMax =  -9.74817027099562E-08  8.89218368115518E+00
 cg2d: Sum(rhs),rhsMax =  -9.75496519117769E-08  8.88599608996445E+00
 cg2d: Sum(rhs),rhsMax =  -9.76179350686834E-08  8.87979980032782E+00
 cg2d: Sum(rhs),rhsMax =  -9.76860476953334E-08  8.87359466021019E+00
 cg2d: Sum(rhs),rhsMax =  -9.77549490244201E-08  8.86737992136571E+00
 cg2d: Sum(rhs),rhsMax =  -9.78237792992331E-08  8.86115449881272E+00
 cg2d: Sum(rhs),rhsMax =  -9.78925882577641E-08  8.85491714939279E+00
 cg2d: Sum(rhs),rhsMax =  -9.79620651264668E-08  8.84866650814923E+00
 cg2d: Sum(rhs),rhsMax =  -9.80318830556826E-08  8.84239908862083E+00
 cg2d: Sum(rhs),rhsMax =  -9.81016583523342E-08  8.83611205511795E+00
 EXTERNAL_FIELDS_LOAD, it=   3600510 : Reading new data, i0,i1=    9   10 (prev=    8    9 )
 DIC_FIELDS_LOAD, it=   3600510 : Reading new data, i0,i1=    9   10 (prev=    8    9 )
 cg2d: Sum(rhs),rhsMax =  -9.81721868242857E-08  8.82980306034887E+00
 cg2d: Sum(rhs),rhsMax =  -9.82427721396562E-08  8.82347164349139E+00
 cg2d: Sum(rhs),rhsMax =  -9.83135990395567E-08  8.81711735596894E+00
 cg2d: Sum(rhs),rhsMax =  -9.83851720093298E-08  8.81074020360017E+00
 cg2d: Sum(rhs),rhsMax =  -9.84564962891454E-08  8.80434063629974E+00
 cg2d: Sum(rhs),rhsMax =  -9.85286376931072E-08  8.79791959804717E+00
 cg2d: Sum(rhs),rhsMax =  -9.86011414738641E-08  8.79147850051498E+00
 cg2d: Sum(rhs),rhsMax =  -9.86734960406466E-08  8.78501923806664E+00
 cg2d: Sum(rhs),rhsMax =  -9.87464900958912E-08  8.77854412431977E+00
 cg2d: Sum(rhs),rhsMax =  -9.88197470519481E-08  8.77205585109022E+00
 cg2d: Sum(rhs),rhsMax =  -9.88934729662105E-08  8.76555740298602E+00
 cg2d: Sum(rhs),rhsMax =  -9.89669146633787E-08  8.75905198910442E+00
 cg2d: Sum(rhs),rhsMax =  -9.90407258427695E-08  8.75254295465281E+00
 cg2d: Sum(rhs),rhsMax =  -9.91145014950234E-08  8.74603368964057E+00
 cg2d: Sum(rhs),rhsMax =  -9.91886466295000E-08  8.73952755244439E+00
 cg2d: Sum(rhs),rhsMax =  -9.92623157003436E-08  8.73302782624689E+00
 cg2d: Sum(rhs),rhsMax =  -9.93363400425551E-08  8.72653766294564E+00
 cg2d: Sum(rhs),rhsMax =  -9.94104141227581E-08  8.72006002219781E+00
 cg2d: Sum(rhs),rhsMax =  -9.94844668866790E-08  8.71359759621992E+00
 cg2d: Sum(rhs),rhsMax =  -9.95583775420528E-08  8.70715278372291E+00
 cg2d: Sum(rhs),rhsMax =  -9.96322597757171E-08  8.70072771032166E+00
 cg2d: Sum(rhs),rhsMax =  -9.97059714791249E-08  8.69432422374462E+00
 cg2d: Sum(rhs),rhsMax =  -9.97792923840279E-08  8.68794392220557E+00
 cg2d: Sum(rhs),rhsMax =  -9.98527127649140E-08  8.68159287495532E+00
 cg2d: Sum(rhs),rhsMax =  -9.99256144496030E-08  8.67527594836007E+00
 cg2d: Sum(rhs),rhsMax =  -9.99983740257449E-08  8.66899648662334E+00
 cg2d: Sum(rhs),rhsMax =  -1.00070764119664E-07  8.66275674813775E+00
 cg2d: Sum(rhs),rhsMax =  -1.00142791836788E-07  8.65655808426570E+00
 cg2d: Sum(rhs),rhsMax =  -1.00214123222031E-07  8.65040095427649E+00
 cg2d: Sum(rhs),rhsMax =  -1.00285419080137E-07  8.64428511771589E+00
 cg2d: Sum(rhs),rhsMax =  -1.00356203347474E-07  8.63820779072895E+00
 cg2d: Sum(rhs),rhsMax =  -1.00426881033400E-07  8.63216610266613E+00
 cg2d: Sum(rhs),rhsMax =  -1.00497182131676E-07  8.62615664857018E+00
 cg2d: Sum(rhs),rhsMax =  -1.00566929006618E-07  8.62017549344574E+00
 cg2d: Sum(rhs),rhsMax =  -1.00636839306389E-07  8.61421824973427E+00
 cg2d: Sum(rhs),rhsMax =  -1.00706515127058E-07  8.60828014305759E+00
 cg2d: Sum(rhs),rhsMax =  -1.00776318845419E-07  8.60235619466164E+00
 cg2d: Sum(rhs),rhsMax =  -1.00845916506387E-07  8.59644141396147E+00
 cg2d: Sum(rhs),rhsMax =  -1.00915485745645E-07  8.59053104903554E+00
 cg2d: Sum(rhs),rhsMax =  -1.00985261042297E-07  8.58462072248315E+00
 cg2d: Sum(rhs),rhsMax =  -1.01055491086299E-07  8.57870663714626E+00
 cg2d: Sum(rhs),rhsMax =  -1.01125422702353E-07  8.57278566865890E+00
 cg2d: Sum(rhs),rhsMax =  -1.01195716695202E-07  8.56685532083521E+00
 cg2d: Sum(rhs),rhsMax =  -1.01266216745444E-07  8.56091374139585E+00
 cg2d: Sum(rhs),rhsMax =  -1.01337192859319E-07  8.55495975914983E+00
 cg2d: Sum(rhs),rhsMax =  -1.01408346608878E-07  8.54899275863313E+00
 cg2d: Sum(rhs),rhsMax =  -1.01479535885574E-07  8.54301265247851E+00
 cg2d: Sum(rhs),rhsMax =  -1.01551435705005E-07  8.53701978569626E+00
 cg2d: Sum(rhs),rhsMax =  -1.01622724457684E-07  8.53101490472480E+00
 cg2d: Sum(rhs),rhsMax =  -1.01695292187287E-07  8.52499919193590E+00
 cg2d: Sum(rhs),rhsMax =  -1.01767554383514E-07  8.51897431341724E+00
 cg2d: Sum(rhs),rhsMax =  -1.01840242905382E-07  8.51294235247767E+00
 cg2d: Sum(rhs),rhsMax =  -1.01912846162122E-07  8.50690569200869E+00
 cg2d: Sum(rhs),rhsMax =  -1.01985413891725E-07  8.50087005576702E+00
 cg2d: Sum(rhs),rhsMax =  -1.02058450579534E-07  8.49484015017416E+00
 cg2d: Sum(rhs),rhsMax =  -1.02131188839394E-07  8.48882063673028E+00
 cg2d: Sum(rhs),rhsMax =  -1.02203856044980E-07  8.48281607441673E+00
 cg2d: Sum(rhs),rhsMax =  -1.02276672464541E-07  8.47683086082370E+00
 cg2d: Sum(rhs),rhsMax =  -1.02349595465512E-07  8.47086915096995E+00
 cg2d: Sum(rhs),rhsMax =  -1.02421360281824E-07  8.46493476809303E+00
 EXTERNAL_FIELDS_LOAD, it=   3600570 : Reading new data, i0,i1=   10   11 (prev=    9   10 )
 DIC_FIELDS_LOAD, it=   3600570 : Reading new data, i0,i1=   10   11 (prev=    9   10 )
 cg2d: Sum(rhs),rhsMax =  -1.02493515896640E-07  8.45903109783263E+00
 cg2d: Sum(rhs),rhsMax =  -1.02564975179575E-07  8.45319648993583E+00
 cg2d: Sum(rhs),rhsMax =  -1.02634501786270E-07  8.44745634270964E+00
 cg2d: Sum(rhs),rhsMax =  -1.02703893389844E-07  8.44183524325516E+00
 cg2d: Sum(rhs),rhsMax =  -1.02770819410125E-07  8.43635626330932E+00
 cg2d: Sum(rhs),rhsMax =  -1.02836231974379E-07  8.43104036727980E+00
 cg2d: Sum(rhs),rhsMax =  -1.02899214482477E-07  8.42590597581903E+00
 cg2d: Sum(rhs),rhsMax =  -1.02960150627496E-07  8.42096861540595E+00
 cg2d: Sum(rhs),rhsMax =  -1.03018727770632E-07  8.41624063283881E+00
 cg2d: Sum(rhs),rhsMax =  -1.03074462742825E-07  8.41173099284368E+00
 cg2d: Sum(rhs),rhsMax =  -1.03127582917750E-07  8.40744522364360E+00
 cg2d: Sum(rhs),rhsMax =  -1.03177704602331E-07  8.40338548638234E+00
 cg2d: Sum(rhs),rhsMax =  -1.03225289649345E-07  8.39955071057647E+00
 cg2d: Sum(rhs),rhsMax =  -1.03270444640202E-07  8.39593686353065E+00
 cg2d: Sum(rhs),rhsMax =  -1.03312800092681E-07  8.39253726007720E+00
 cg2d: Sum(rhs),rhsMax =  -1.03352554958747E-07  8.38934286490718E+00
 cg2d: Sum(rhs),rhsMax =  -1.03389886874083E-07  8.38634267692018E+00
 cg2d: Sum(rhs),rhsMax =  -1.03425186637196E-07  8.38352418466840E+00
 cg2d: Sum(rhs),rhsMax =  -1.03458575040349E-07  8.38087384792736E+00
 cg2d: Sum(rhs),rhsMax =  -1.03489654179612E-07  8.37837764295235E+00
 cg2d: Sum(rhs),rhsMax =  -1.03519347760539E-07  8.37602165023152E+00
 cg2d: Sum(rhs),rhsMax =  -1.03547364460610E-07  8.37379265495454E+00
 cg2d: Sum(rhs),rhsMax =  -1.03573896126363E-07  8.37167859305842E+00
 cg2d: Sum(rhs),rhsMax =  -1.03599155920620E-07  8.36966841617237E+00
 cg2d: Sum(rhs),rhsMax =  -1.03623357006200E-07  8.36775262363169E+00
 cg2d: Sum(rhs),rhsMax =  -1.03646584648232E-07  8.36592322530019E+00
 cg2d: Sum(rhs),rhsMax =  -1.03668426731929E-07  8.36417370361670E+00
 cg2d: Sum(rhs),rhsMax =  -1.03689806962848E-07  8.36249893566327E+00
 cg2d: Sum(rhs),rhsMax =  -1.03710164012227E-07  8.36089512198643E+00
 cg2d: Sum(rhs),rhsMax =  -1.03729064448999E-07  8.35935972193128E+00
 cg2d: Sum(rhs),rhsMax =  -1.03747986202052E-07  8.35789132052859E+00
 cg2d: Sum(rhs),rhsMax =  -1.03765373182796E-07  8.35648953984663E+00
 cg2d: Sum(rhs),rhsMax =  -1.03782369365035E-07  8.35515503666620E+00
 cg2d: Sum(rhs),rhsMax =  -1.03798733164240E-07  8.35388959337713E+00
 cg2d: Sum(rhs),rhsMax =  -1.03813491136862E-07  8.35269612989214E+00
 cg2d: Sum(rhs),rhsMax =  -1.03827638042731E-07  8.35157865319166E+00
 cg2d: Sum(rhs),rhsMax =  -1.03841280463257E-07  8.35054220321588E+00
 cg2d: Sum(rhs),rhsMax =  -1.03853331268056E-07  8.34959282244478E+00
 cg2d: Sum(rhs),rhsMax =  -1.03864024936229E-07  8.34873757212784E+00
 cg2d: Sum(rhs),rhsMax =  -1.03873794898846E-07  8.34798443944571E+00
 cg2d: Sum(rhs),rhsMax =  -1.03881951929452E-07  8.34734205444848E+00
 cg2d: Sum(rhs),rhsMax =  -1.03888730507151E-07  8.34681927427749E+00
 cg2d: Sum(rhs),rhsMax =  -1.03893782466002E-07  8.34642479662444E+00
 cg2d: Sum(rhs),rhsMax =  -1.03896695691219E-07  8.34616690162161E+00
 cg2d: Sum(rhs),rhsMax =  -1.03898251779810E-07  8.34605328416144E+00
 cg2d: Sum(rhs),rhsMax =  -1.03897747294468E-07  8.34609086201575E+00
 cg2d: Sum(rhs),rhsMax =  -1.03895416714295E-07  8.34628560159372E+00
 cg2d: Sum(rhs),rhsMax =  -1.03891132141598E-07  8.34664238294981E+00
 cg2d: Sum(rhs),rhsMax =  -1.03884730151549E-07  8.34716488141953E+00
 cg2d: Sum(rhs),rhsMax =  -1.03876232060429E-07  8.34785544920597E+00
 cg2d: Sum(rhs),rhsMax =  -1.03865339440290E-07  8.34871504733891E+00
 cg2d: Sum(rhs),rhsMax =  -1.03852393351644E-07  8.34974320296400E+00
 cg2d: Sum(rhs),rhsMax =  -1.03837578535604E-07  8.35093803633076E+00
 cg2d: Sum(rhs),rhsMax =  -1.03820866570459E-07  8.35229628921908E+00
 cg2d: Sum(rhs),rhsMax =  -1.03801575335183E-07  8.35381348895399E+00
 cg2d: Sum(rhs),rhsMax =  -1.03780770643880E-07  8.35548405560547E+00
 cg2d: Sum(rhs),rhsMax =  -1.03758168279455E-07  8.35730145035772E+00
 cg2d: Sum(rhs),rhsMax =  -1.03734052459004E-07  8.35925834161856E+00
 cg2d: Sum(rhs),rhsMax =  -1.03707641585515E-07  8.36134677020027E+00
 cg2d: Sum(rhs),rhsMax =  -1.03680264373907E-07  8.36355833544679E+00
 EXTERNAL_FIELDS_LOAD, it=   3600630 : Reading new data, i0,i1=   11   12 (prev=   10   11 )
 DIC_FIELDS_LOAD, it=   3600630 : Reading new data, i0,i1=   11   12 (prev=   10   11 )
 cg2d: Sum(rhs),rhsMax =  -1.03651167648877E-07  8.36588437297216E+00
 cg2d: Sum(rhs),rhsMax =  -1.03620983793462E-07  8.36829873825493E+00
 cg2d: Sum(rhs),rhsMax =  -1.03590167555012E-07  8.37078098256463E+00
 cg2d: Sum(rhs),rhsMax =  -1.03558832620365E-07  8.37331076990736E+00
 cg2d: Sum(rhs),rhsMax =  -1.03526986094948E-07  8.37586828475342E+00
 cg2d: Sum(rhs),rhsMax =  -1.03494969039275E-07  8.37843651347270E+00
 cg2d: Sum(rhs),rhsMax =  -1.03462959089029E-07  8.38100058596186E+00
 cg2d: Sum(rhs),rhsMax =  -1.03431759157502E-07  8.38354800119352E+00
 cg2d: Sum(rhs),rhsMax =  -1.03400431328282E-07  8.38606907281455E+00
 cg2d: Sum(rhs),rhsMax =  -1.03369536930131E-07  8.38855705740912E+00
 cg2d: Sum(rhs),rhsMax =  -1.03339182544460E-07  8.39100818777902E+00
 cg2d: Sum(rhs),rhsMax =  -1.03309091059600E-07  8.39342162927294E+00
 cg2d: Sum(rhs),rhsMax =  -1.03279326424399E-07  8.39579937673915E+00
 cg2d: Sum(rhs),rhsMax =  -1.03250158645096E-07  8.39814606298476E+00
 cg2d: Sum(rhs),rhsMax =  -1.03221587721691E-07  8.40046867037939E+00
 cg2d: Sum(rhs),rhsMax =  -1.03192640210636E-07  8.40277617859981E+00
 cg2d: Sum(rhs),rhsMax =  -1.03164317977189E-07  8.40507915533000E+00
 cg2d: Sum(rhs),rhsMax =  -1.03135583628955E-07  8.40738929078001E+00
 cg2d: Sum(rhs),rhsMax =  -1.03106465587643E-07  8.40971893982490E+00
 cg2d: Sum(rhs),rhsMax =  -1.03077603341717E-07  8.41208069021930E+00
 cg2d: Sum(rhs),rhsMax =  -1.03047760546815E-07  8.41448664736628E+00
 cg2d: Sum(rhs),rhsMax =  -1.03017328001442E-07  8.41694808963461E+00
 cg2d: Sum(rhs),rhsMax =  -1.02985850958248E-07  8.41947641344255E+00
 cg2d: Sum(rhs),rhsMax =  -1.02953762848301E-07  8.42209465677943E+00
 cg2d: Sum(rhs),rhsMax =  -1.02920779454507E-07  8.42481840011152E+00
 cg2d: Sum(rhs),rhsMax =  -1.02885756803062E-07  8.42766143831664E+00
 cg2d: Sum(rhs),rhsMax =  -1.02849760708068E-07  8.43063562227923E+00
 cg2d: Sum(rhs),rhsMax =  -1.02811505087175E-07  8.43375048923612E+00
 cg2d: Sum(rhs),rhsMax =  -1.02771743115682E-07  8.43701312183894E+00
 cg2d: Sum(rhs),rhsMax =  -1.02730268736195E-07  8.44042805498092E+00
 cg2d: Sum(rhs),rhsMax =  -1.02686364300553E-07  8.44399728026233E+00
 cg2d: Sum(rhs),rhsMax =  -1.02641237731405E-07  8.44772028674299E+00
 cg2d: Sum(rhs),rhsMax =  -1.02594057693750E-07  8.45159419183708E+00
 cg2d: Sum(rhs),rhsMax =  -1.02545079982974E-07  8.45561389463918E+00
 cg2d: Sum(rhs),rhsMax =  -1.02494418285914E-07  8.45977229544668E+00
 cg2d: Sum(rhs),rhsMax =  -1.02442626825905E-07  8.46406043486096E+00
 cg2d: Sum(rhs),rhsMax =  -1.02389186906748E-07  8.46846786249842E+00
 cg2d: Sum(rhs),rhsMax =  -1.02334411167249E-07  8.47298294092153E+00
 cg2d: Sum(rhs),rhsMax =  -1.02278569613645E-07  8.47759310010859E+00
 cg2d: Sum(rhs),rhsMax =  -1.02221783038203E-07  8.48228511495217E+00
 cg2d: Sum(rhs),rhsMax =  -1.02164435134000E-07  8.48704540520819E+00
 cg2d: Sum(rhs),rhsMax =  -1.02106639587873E-07  8.49186038102640E+00
 cg2d: Sum(rhs),rhsMax =  -1.02048161920720E-07  8.49671683330553E+00
 cg2d: Sum(rhs),rhsMax =  -1.01989222400789E-07  8.50160229731839E+00
 cg2d: Sum(rhs),rhsMax =  -1.01930119456028E-07  8.50650541756349E+00
 cg2d: Sum(rhs),rhsMax =  -1.01871734159431E-07  8.51141606286167E+00
 cg2d: Sum(rhs),rhsMax =  -1.01813114383731E-07  8.51632550458549E+00
 cg2d: Sum(rhs),rhsMax =  -1.01754352499484E-07  8.52122658728227E+00
 cg2d: Sum(rhs),rhsMax =  -1.01695938781177E-07  8.52611387363114E+00
 cg2d: Sum(rhs),rhsMax =  -1.01637908755947E-07  8.53098375482528E+00
 cg2d: Sum(rhs),rhsMax =  -1.01580091893538E-07  8.53583450654913E+00
 cg2d: Sum(rhs),rhsMax =  -1.01522516615660E-07  8.54066629803099E+00
 cg2d: Sum(rhs),rhsMax =  -1.01465325030858E-07  8.54548114840508E+00
 cg2d: Sum(rhs),rhsMax =  -1.01408510033707E-07  8.55028281355603E+00
 cg2d: Sum(rhs),rhsMax =  -1.01351844250530E-07  8.55507663782142E+00
 cg2d: Sum(rhs),rhsMax =  -1.01294901355686E-07  8.55986938569464E+00
 cg2d: Sum(rhs),rhsMax =  -1.01238242677937E-07  8.56466907941720E+00
 cg2d: Sum(rhs),rhsMax =  -1.01181711897880E-07  8.56948481849350E+00
 cg2d: Sum(rhs),rhsMax =  -1.01124427942523E-07  8.57432655386490E+00
 cg2d: Sum(rhs),rhsMax =  -1.01066994773191E-07  8.57920482306538E+00
 EXTERNAL_FIELDS_LOAD, it=   3600690 : Reading new data, i0,i1=   12    1 (prev=   11   12 )
 DIC_FIELDS_LOAD, it=   3600690 : Reading new data, i0,i1=   12    1 (prev=   11   12 )
 cg2d: Sum(rhs),rhsMax =  -1.01009099751082E-07  8.58413045456863E+00
 cg2d: Sum(rhs),rhsMax =  -1.00950970249869E-07  8.58908772075261E+00
 cg2d: Sum(rhs),rhsMax =  -1.00892201260194E-07  8.59407113784658E+00
 cg2d: Sum(rhs),rhsMax =  -1.00833979388426E-07  8.59907533504329E+00
 cg2d: Sum(rhs),rhsMax =  -1.00775366718153E-07  8.60409527812640E+00
 cg2d: Sum(rhs),rhsMax =  -1.00716533779632E-07  8.60912639608676E+00
 cg2d: Sum(rhs),rhsMax =  -1.00657807422522E-07  8.61416467727663E+00
 cg2d: Sum(rhs),rhsMax =  -1.00599194752249E-07  8.61920670304104E+00
 cg2d: Sum(rhs),rhsMax =  -1.00540219705181E-07  8.62424959025954E+00
 cg2d: Sum(rhs),rhsMax =  -1.00481713616318E-07  8.62929084710763E+00
 cg2d: Sum(rhs),rhsMax =  -1.00423278581729E-07  8.63432823431656E+00
 cg2d: Sum(rhs),rhsMax =  -1.00365085131671E-07  8.63935967110789E+00
 cg2d: Sum(rhs),rhsMax =  -1.00306984052168E-07  8.64438326330631E+00
 cg2d: Sum(rhs),rhsMax =  -1.00248698231553E-07  8.64939736363611E+00
 cg2d: Sum(rhs),rhsMax =  -1.00191144269957E-07  8.65440069908248E+00
 cg2d: Sum(rhs),rhsMax =  -1.00133568992078E-07  8.65939260929048E+00
 cg2d: Sum(rhs),rhsMax =  -1.00076100295610E-07  8.66437312037654E+00
 cg2d: Sum(rhs),rhsMax =  -1.00019036608501E-07  8.66934290835576E+00
 cg2d: Sum(rhs),rhsMax =  -9.99617597585711E-08  8.67430225124478E+00
 cg2d: Sum(rhs),rhsMax =  -9.99047102823170E-08  8.67925494682890E+00
 cg2d: Sum(rhs),rhsMax =  -9.98482363456787E-08  8.68420608713978E+00
 cg2d: Sum(rhs),rhsMax =  -9.97913716105359E-08  8.68916081980566E+00
 cg2d: Sum(rhs),rhsMax =  -9.97343434505638E-08  8.69412416784580E+00
 cg2d: Sum(rhs),rhsMax =  -9.96773295014464E-08  8.69910085245627E+00
 cg2d: Sum(rhs),rhsMax =  -9.96202871306195E-08  8.70409517445086E+00
 cg2d: Sum(rhs),rhsMax =  -9.95629250155616E-08  8.70911095741398E+00
 cg2d: Sum(rhs),rhsMax =  -9.95059110664442E-08  8.71415148969223E+00
 cg2d: Sum(rhs),rhsMax =  -9.94480160443345E-08  8.71921930590513E+00
 cg2d: Sum(rhs),rhsMax =  -9.93902702361993E-08  8.72431607432102E+00
 cg2d: Sum(rhs),rhsMax =  -9.93317215147727E-08  8.72944261226047E+00
 cg2d: Sum(rhs),rhsMax =  -9.92735280647139E-08  8.73459893266904E+00
 cg2d: Sum(rhs),rhsMax =  -9.92147448641845E-08  8.73978430818157E+00
 cg2d: Sum(rhs),rhsMax =  -9.91560966667748E-08  8.74499735837366E+00
 cg2d: Sum(rhs),rhsMax =  -9.90966526615011E-08  8.75023614706347E+00
 cg2d: Sum(rhs),rhsMax =  -9.90366970654577E-08  8.75549829188909E+00
 cg2d: Sum(rhs),rhsMax =  -9.89772743764661E-08  8.76078107848702E+00
 cg2d: Sum(rhs),rhsMax =  -9.89177024735000E-08  8.76608155580086E+00
 cg2d: Sum(rhs),rhsMax =  -9.88579742511320E-08  8.77139664107964E+00
 cg2d: Sum(rhs),rhsMax =  -9.87977060162848E-08  8.77672320795606E+00
 cg2d: Sum(rhs),rhsMax =  -9.87382264838743E-08  8.78205816635757E+00
(PID.TID 0000.0001) Did not write pickup because writePickupAtEnd = FALSE
 DIC_SURFFORCING_INIT, it=   3600000 : Reading new data, i0,i1=   12    1
 QQ: pCO2 approximation method
 QQ first guess pH 8.2869849781645275,  7.129213793781922,  34.1535348423009,  2.0282,  5.43799999999999991E-4,  8.08490416966378689E-3,  2.3086000000000002
(PID.TID 0000.0001) // =======================================================
(PID.TID 0000.0001) // Model current state
(PID.TID 0000.0001) // =======================================================
(PID.TID 0000.0001) 
 EXTERNAL_FIELDS_LOAD, it=   3600000 : Reading new data, i0,i1=   12    1 (prev=   12    0 )
 DIC_FIELDS_LOAD, it=   3600000 : Reading new data, i0,i1=   12    1 (prev=   12    0 )
 cg2d: Sum(rhs),rhsMax =  -9.92433868418630E-08  8.73439671821315E+00
 cg2d: Sum(rhs),rhsMax =  -9.91844260056496E-08  8.73957958587058E+00
 cg2d: Sum(rhs),rhsMax =  -9.91252449011881E-08  8.74478969091806E+00
 cg2d: Sum(rhs),rhsMax =  -9.90665185440776E-08  8.75002495477880E+00
 cg2d: Sum(rhs),rhsMax =  -9.90068542705558E-08  8.75528284057604E+00
 cg2d: Sum(rhs),rhsMax =  -9.89473534218632E-08  8.76056047500076E+00
 cg2d: Sum(rhs),rhsMax =  -9.88878241514612E-08  8.76585475900637E+00
 cg2d: Sum(rhs),rhsMax =  -9.88279893476829E-08  8.77116249138180E+00
 cg2d: Sum(rhs),rhsMax =  -9.87682469144602E-08  8.77648047471154E+00
 cg2d: Sum(rhs),rhsMax =  -9.87087602766223E-08  8.78180560756084E+00
 cg2d: Sum(rhs),rhsMax =  -9.86489112619893E-08  8.78713494778165E+00
 cg2d: Sum(rhs),rhsMax =  -9.85891404070571E-08  8.79246575399440E+00
 cg2d: Sum(rhs),rhsMax =  -9.85293340249882E-08  8.79779549299699E+00
 cg2d: Sum(rhs),rhsMax =  -9.84700747608258E-08  8.80312181092759E+00
 cg2d: Sum(rhs),rhsMax =  -9.84108581292276E-08  8.80844249631459E+00
 cg2d: Sum(rhs),rhsMax =  -9.83516486030567E-08  8.81375547068360E+00
 cg2d: Sum(rhs),rhsMax =  -9.82926522397065E-08  8.81905885446822E+00
 cg2d: Sum(rhs),rhsMax =  -9.82337553523394E-08  8.82435106608147E+00
 cg2d: Sum(rhs),rhsMax =  -9.81751568929212E-08  8.82963093738125E+00
 cg2d: Sum(rhs),rhsMax =  -9.81166650149135E-08  8.83489782452132E+00
 cg2d: Sum(rhs),rhsMax =  -9.80585213028462E-08  8.84015168145881E+00
 cg2d: Sum(rhs),rhsMax =  -9.80007470730015E-08  8.84539306572338E+00
 cg2d: Sum(rhs),rhsMax =  -9.79429586323022E-08  8.85062306296846E+00
 cg2d: Sum(rhs),rhsMax =  -9.78853904598509E-08  8.85584316140559E+00
 cg2d: Sum(rhs),rhsMax =  -9.78280425556477E-08  8.86105508303604E+00
 cg2d: Sum(rhs),rhsMax =  -9.77709291305473E-08  8.86626061391844E+00
 cg2d: Sum(rhs),rhsMax =  -9.77132472712583E-08  8.87146147123075E+00
 cg2d: Sum(rhs),rhsMax =  -9.76563327981239E-08  8.87665923110881E+00
 cg2d: Sum(rhs),rhsMax =  -9.75990843699037E-08  8.88185530584736E+00
 cg2d: Sum(rhs),rhsMax =  -9.75420704207863E-08  8.88705095973601E+00
 EXTERNAL_FIELDS_LOAD, it=   3600030 : Reading new data, i0,i1=    1    2 (prev=   12    1 )
 DIC_FIELDS_LOAD, it=   3600030 : Reading new data, i0,i1=    1    2 (prev=   12    1 )
 cg2d: Sum(rhs),rhsMax =  -9.74853406887632E-08  8.89224735691429E+00
 cg2d: Sum(rhs),rhsMax =  -9.74287814869967E-08  8.89742706375180E+00
 cg2d: Sum(rhs),rhsMax =  -9.73723857100595E-08  8.90258000132907E+00
 cg2d: Sum(rhs),rhsMax =  -9.73164659967551E-08  8.90769672951691E+00
 cg2d: Sum(rhs),rhsMax =  -9.72612284044772E-08  8.91276878246959E+00
 cg2d: Sum(rhs),rhsMax =  -9.72070637317302E-08  8.91778889429735E+00
 cg2d: Sum(rhs),rhsMax =  -9.71530482729577E-08  8.92275113682099E+00
 cg2d: Sum(rhs),rhsMax =  -9.70993241367069E-08  8.92765100404361E+00
 cg2d: Sum(rhs),rhsMax =  -9.70471916161841E-08  8.93248545016401E+00
 cg2d: Sum(rhs),rhsMax =  -9.69955280538670E-08  8.93725287491615E+00
 cg2d: Sum(rhs),rhsMax =  -9.69441273923621E-08  8.94195305183593E+00
 cg2d: Sum(rhs),rhsMax =  -9.68941833434656E-08  8.94658701582531E+00
 cg2d: Sum(rhs),rhsMax =  -9.68450208915783E-08  8.95115692214719E+00
 cg2d: Sum(rhs),rhsMax =  -9.67962705544778E-08  8.95566589123099E+00
 cg2d: Sum(rhs),rhsMax =  -9.67482165492584E-08  8.96011786358850E+00
 cg2d: Sum(rhs),rhsMax =  -9.67008020325011E-08  8.96451747891563E+00
 cg2d: Sum(rhs),rhsMax =  -9.66539346336504E-08  8.96886998187158E+00
 cg2d: Sum(rhs),rhsMax =  -9.66078843589457E-08  8.97318115409823E+00
 cg2d: Sum(rhs),rhsMax =  -9.65621254067628E-08  8.97745726495199E+00
 cg2d: Sum(rhs),rhsMax =  -9.65159685506478E-08  8.98170502198163E+00
 cg2d: Sum(rhs),rhsMax =  -9.64709272466280E-08  8.98593151889555E+00
 cg2d: Sum(rhs),rhsMax =  -9.64258006774799E-08  8.99014423145949E+00
 cg2d: Sum(rhs),rhsMax =  -9.63806954246138E-08  8.99435085408351E+00
 cg2d: Sum(rhs),rhsMax =  -9.63354978011921E-08  8.99855914272681E+00
 cg2d: Sum(rhs),rhsMax =  -9.62904493917449E-08  9.00277662786875E+00
 cg2d: Sum(rhs),rhsMax =  -9.62449746566563E-08  9.00700998220796E+00
 cg2d: Sum(rhs),rhsMax =  -9.61997557169525E-08  9.01126574761483E+00
 cg2d: Sum(rhs),rhsMax =  -9.61540180810516E-08  9.01555039729210E+00
 cg2d: Sum(rhs),rhsMax =  -9.61077120109621E-08  9.01986971435378E+00
 cg2d: Sum(rhs),rhsMax =  -9.60613775191632E-08  9.02422880815445E+00
 cg2d: Sum(rhs),rhsMax =  -9.60143182737738E-08  9.02863205182447E+00
 cg2d: Sum(rhs),rhsMax =  -9.59668398081703E-08  9.03308295193821E+00
 cg2d: Sum(rhs),rhsMax =  -9.59189492277801E-08  9.03758400719746E+00
 cg2d: Sum(rhs),rhsMax =  -9.58706323217484E-08  9.04213663854453E+00
 cg2d: Sum(rhs),rhsMax =  -9.58215622404168E-08  9.04674109185253E+00
 cg2d: Sum(rhs),rhsMax =  -9.57721724148541E-08  9.05139640217902E+00
 cg2d: Sum(rhs),rhsMax =  -9.57223775799321E-08  9.05610040614876E+00
 cg2d: Sum(rhs),rhsMax =  -9.56718224642827E-08  9.06084979109159E+00
 cg2d: Sum(rhs),rhsMax =  -9.56211039238042E-08  9.06564017672268E+00
 cg2d: Sum(rhs),rhsMax =  -9.55700798499493E-08  9.07046622792088E+00
 cg2d: Sum(rhs),rhsMax =  -9.55189918272481E-08  9.07532179655311E+00
 cg2d: Sum(rhs),rhsMax =  -9.54672145780933E-08  9.08020008054443E+00
 cg2d: Sum(rhs),rhsMax =  -9.54156860188959E-08  9.08509379067778E+00
 cg2d: Sum(rhs),rhsMax =  -9.53640864054250E-08  9.08999532389517E+00
 cg2d: Sum(rhs),rhsMax =  -9.53120391500306E-08  9.09489685062687E+00
 cg2d: Sum(rhs),rhsMax =  -9.52604963799786E-08  9.09979078670731E+00
 cg2d: Sum(rhs),rhsMax =  -9.52091738781746E-08  9.10466952325132E+00
 cg2d: Sum(rhs),rhsMax =  -9.51581995423112E-08  9.10952586151125E+00
 cg2d: Sum(rhs),rhsMax =  -9.51075378452515E-08  9.11435305322486E+00
 cg2d: Sum(rhs),rhsMax =  -9.50568974644739E-08  9.11914489544444E+00
 cg2d: Sum(rhs),rhsMax =  -9.50070173644235E-08  9.12389583482653E+00
 cg2d: Sum(rhs),rhsMax =  -9.49582670273230E-08  9.12860106773695E+00
 cg2d: Sum(rhs),rhsMax =  -9.49094669522310E-08  9.13325671324743E+00
 cg2d: Sum(rhs),rhsMax =  -9.48612637330370E-08  9.13785989332165E+00
 cg2d: Sum(rhs),rhsMax =  -9.48139060596986E-08  9.14240888612431E+00
 cg2d: Sum(rhs),rhsMax =  -9.47671381368309E-08  9.14690322805975E+00
 cg2d: Sum(rhs),rhsMax =  -9.47210025969980E-08  9.15134376400067E+00
 cg2d: Sum(rhs),rhsMax =  -9.46753857533622E-08  9.15573262291172E+00
 cg2d: Sum(rhs),rhsMax =  -9.46305078741716E-08  9.16007311317651E+00
 cg2d: Sum(rhs),rhsMax =  -9.45855020972886E-08  9.16436954661381E+00
 EXTERNAL_FIELDS_LOAD, it=   3600090 : Reading new data, i0,i1=    2    3 (prev=    1    2 )
 DIC_FIELDS_LOAD, it=   3600090 : Reading new data, i0,i1=    2    3 (prev=    1    2 )
 cg2d: Sum(rhs),rhsMax =  -9.45416047670733E-08  9.16862700792054E+00
 cg2d: Sum(rhs),rhsMax =  -9.44977784911316E-08  9.17286965792043E+00
 cg2d: Sum(rhs),rhsMax =  -9.44538882663437E-08  9.17711460232796E+00
 cg2d: Sum(rhs),rhsMax =  -9.44097777733077E-08  9.18137827264839E+00
 cg2d: Sum(rhs),rhsMax =  -9.43655606988614E-08  9.18567586102450E+00
 cg2d: Sum(rhs),rhsMax =  -9.43208533499273E-08  9.19002086507332E+00
 cg2d: Sum(rhs),rhsMax =  -9.42755065125311E-08  9.19442473147613E+00
 cg2d: Sum(rhs),rhsMax =  -9.42294988703907E-08  9.19889660310093E+00
 cg2d: Sum(rhs),rhsMax =  -9.41831217460276E-08  9.20344317156002E+00
 cg2d: Sum(rhs),rhsMax =  -9.41357711781166E-08  9.20806863385625E+00
 cg2d: Sum(rhs),rhsMax =  -9.40875679589226E-08  9.21277472508850E+00
 cg2d: Sum(rhs),rhsMax =  -9.40387323566938E-08  9.21756082935263E+00
 cg2d: Sum(rhs),rhsMax =  -9.39891506845925E-08  9.22242415169496E+00
 cg2d: Sum(rhs),rhsMax =  -9.39387589937724E-08  9.22735992735964E+00
 cg2d: Sum(rhs),rhsMax =  -9.38874578082505E-08  9.23236166048178E+00
 cg2d: Sum(rhs),rhsMax =  -9.38360713576003E-08  9.23742136926884E+00
 cg2d: Sum(rhs),rhsMax =  -9.37847204340869E-08  9.24252982829311E+00
 cg2d: Sum(rhs),rhsMax =  -9.37326518624104E-08  9.24767682825910E+00
 cg2d: Sum(rhs),rhsMax =  -9.36799651185538E-08  9.25285135651627E+00
 cg2d: Sum(rhs),rhsMax =  -9.36278468088858E-08  9.25804181556396E+00
 cg2d: Sum(rhs),rhsMax =  -9.35753803332773E-08  9.26323624437734E+00
 cg2d: Sum(rhs),rhsMax =  -9.35233543941649E-08  9.26842252954541E+00
 cg2d: Sum(rhs),rhsMax =  -9.34712076627875E-08  9.27358855590945E+00
 cg2d: Sum(rhs),rhsMax =  -9.34198851609835E-08  9.27872221865362E+00
 cg2d: Sum(rhs),rhsMax =  -9.33687331894362E-08  9.28381269175841E+00
 cg2d: Sum(rhs),rhsMax =  -9.33183130769066E-08  9.28884990364347E+00
 cg2d: Sum(rhs),rhsMax =  -9.32684542931383E-08  9.29382460831193E+00
 cg2d: Sum(rhs),rhsMax =  -9.32194410552256E-08  9.29872876125425E+00
 cg2d: Sum(rhs),rhsMax =  -9.31711383600486E-08  9.30355578941157E+00
 cg2d: Sum(rhs),rhsMax =  -9.31240364820951E-08  9.30830071441787E+00
 cg2d: Sum(rhs),rhsMax =  -9.30773893514925E-08  9.31296016039586E+00
 cg2d: Sum(rhs),rhsMax =  -9.30318719838397E-08  9.31753230345820E+00
 cg2d: Sum(rhs),rhsMax =  -9.29872783217434E-08  9.32201677457960E+00
 cg2d: Sum(rhs),rhsMax =  -9.29437931063148E-08  9.32641453687162E+00
 cg2d: Sum(rhs),rhsMax =  -9.29007910599466E-08  9.33072777407330E+00
 cg2d: Sum(rhs),rhsMax =  -9.28590253579387E-08  9.33495977832897E+00
 cg2d: Sum(rhs),rhsMax =  -9.28177001924269E-08  9.33911483571782E+00
 cg2d: Sum(rhs),rhsMax =  -9.27770358316593E-08  9.34319809772528E+00
 cg2d: Sum(rhs),rhsMax =  -9.27373591252945E-08  9.34721542637213E+00
 cg2d: Sum(rhs),rhsMax =  -9.26982295368362E-08  9.35117321728378E+00
 cg2d: Sum(rhs),rhsMax =  -9.26594978523099E-08  9.35507820898651E+00
 cg2d: Sum(rhs),rhsMax =  -9.26212777585533E-08  9.35893728101038E+00
 cg2d: Sum(rhs),rhsMax =  -9.25836900478316E-08  9.36275724876052E+00
 cg2d: Sum(rhs),rhsMax =  -9.25467347201447E-08  9.36654466497940E+00
 cg2d: Sum(rhs),rhsMax =  -9.25093388559617E-08  9.37030563739009E+00
 cg2d: Sum(rhs),rhsMax =  -9.24723693174201E-08  9.37404566529748E+00
 cg2d: Sum(rhs),rhsMax =  -9.24358261045199E-08  9.37776950669782E+00
 cg2d: Sum(rhs),rhsMax =  -9.23998015878169E-08  9.38148107939576E+00
 cg2d: Sum(rhs),rhsMax =  -9.23633649563271E-08  9.38518340080342E+00
 cg2d: Sum(rhs),rhsMax =  -9.23271628039402E-08  9.38887856431341E+00
 cg2d: Sum(rhs),rhsMax =  -9.22907545941598E-08  9.39256775253961E+00
 cg2d: Sum(rhs),rhsMax =  -9.22549361348501E-08  9.39625127829926E+00
 cg2d: Sum(rhs),rhsMax =  -9.22186487173349E-08  9.39992865313115E+00
 cg2d: Sum(rhs),rhsMax =  -9.21831713185384E-08  9.40359867110262E+00
 cg2d: Sum(rhs),rhsMax =  -9.21473457538013E-08  9.40725949891390E+00
 cg2d: Sum(rhs),rhsMax =  -9.21119038821416E-08  9.41090875978471E+00
 cg2d: Sum(rhs),rhsMax =  -9.20763412182168E-08  9.41454361858659E+00
 cg2d: Sum(rhs),rhsMax =  -9.20410343496769E-08  9.41816086827301E+00
 cg2d: Sum(rhs),rhsMax =  -9.20060685416502E-08  9.42175701532902E+00
 cg2d: Sum(rhs),rhsMax =  -9.19711879987517E-08  9.42532836100955E+00
 EXTERNAL_FIELDS_LOAD, it=   3600150 : Reading new data, i0,i1=    3    4 (prev=    2    3 )
 DIC_FIELDS_LOAD, it=   3600150 : Reading new data, i0,i1=    3    4 (prev=    2    3 )
 cg2d: Sum(rhs),rhsMax =  -9.19367622032041E-08  9.42887108055882E+00
 cg2d: Sum(rhs),rhsMax =  -9.19030327395376E-08  9.43235832256638E+00
 cg2d: Sum(rhs),rhsMax =  -9.18696727580937E-08  9.43577294710938E+00
 cg2d: Sum(rhs),rhsMax =  -9.18375349101552E-08  9.43909901719340E+00
 cg2d: Sum(rhs),rhsMax =  -9.18056457521743E-08  9.44232226351574E+00
 cg2d: Sum(rhs),rhsMax =  -9.17754618967592E-08  9.44543045713848E+00
 cg2d: Sum(rhs),rhsMax =  -9.17468696570722E-08  9.44841368652191E+00
 cg2d: Sum(rhs),rhsMax =  -9.17188671678559E-08  9.45126453300903E+00
 cg2d: Sum(rhs),rhsMax =  -9.16929749905648E-08  9.45397814472091E+00
 cg2d: Sum(rhs),rhsMax =  -9.16680278351123E-08  9.45655223330268E+00
 cg2d: Sum(rhs),rhsMax =  -9.16445941356869E-08  9.45898700078271E+00
 cg2d: Sum(rhs),rhsMax =  -9.16223754643397E-08  9.46128500172268E+00
 cg2d: Sum(rhs),rhsMax =  -9.16011231311131E-08  9.46345095767279E+00
 cg2d: Sum(rhs),rhsMax =  -9.15811568802383E-08  9.46549153513779E+00
 cg2d: Sum(rhs),rhsMax =  -9.15625619768434E-08  9.46741508859273E+00
 cg2d: Sum(rhs),rhsMax =  -9.15451252581079E-08  9.46923137659912E+00
 cg2d: Sum(rhs),rhsMax =  -9.15285980340741E-08  9.47095124324780E+00
 cg2d: Sum(rhs),rhsMax =  -9.15126108225195E-08  9.47258633929544E+00
 cg2d: Sum(rhs),rhsMax =  -9.14974762622478E-08  9.47414881667898E+00
 cg2d: Sum(rhs),rhsMax =  -9.14831588261222E-08  9.47565102854520E+00
 cg2d: Sum(rhs),rhsMax =  -9.14691185016636E-08  9.47710524161440E+00
 cg2d: Sum(rhs),rhsMax =  -9.14552913400257E-08  9.47852337330871E+00
 cg2d: Sum(rhs),rhsMax =  -9.14417910280463E-08  9.47991675839448E+00
 cg2d: Sum(rhs),rhsMax =  -9.14288023068366E-08  9.48129594936036E+00
 cg2d: Sum(rhs),rhsMax =  -9.14153162057119E-08  9.48267055268677E+00
 cg2d: Sum(rhs),rhsMax =  -9.14016951014673E-08  9.48404910672501E+00
 cg2d: Sum(rhs),rhsMax =  -9.13883866360266E-08  9.48543898881096E+00
 cg2d: Sum(rhs),rhsMax =  -9.13749147457565E-08  9.48684634838855E+00
 cg2d: Sum(rhs),rhsMax =  -9.13611231112554E-08  9.48827608016959E+00
 cg2d: Sum(rhs),rhsMax =  -9.13465854068818E-08  9.48973182637241E+00
 cg2d: Sum(rhs),rhsMax =  -9.13324456064402E-08  9.49121598932757E+00
 cg2d: Sum(rhs),rhsMax =  -9.13176805283911E-08  9.49272976482376E+00
 cg2d: Sum(rhs),rhsMax =  -9.13029793991882E-08  9.49427318407705E+00
 cg2d: Sum(rhs),rhsMax =  -9.12876600978052E-08  9.49584517202971E+00
 cg2d: Sum(rhs),rhsMax =  -9.12722768475760E-08  9.49744362566448E+00
 cg2d: Sum(rhs),rhsMax =  -9.12563962174318E-08  9.49906550905340E+00
 cg2d: Sum(rhs),rhsMax =  -9.12406292741252E-08  9.50070696299551E+00
 cg2d: Sum(rhs),rhsMax =  -9.12245567974423E-08  9.50236342680402E+00
 cg2d: Sum(rhs),rhsMax =  -9.12086122184519E-08  9.50402976802920E+00
 cg2d: Sum(rhs),rhsMax =  -9.11920636781360E-08  9.50570042893596E+00
 cg2d: Sum(rhs),rhsMax =  -9.11760835720088E-08  9.50736956748404E+00
 cg2d: Sum(rhs),rhsMax =  -9.11599897790438E-08  9.50903122489705E+00
 cg2d: Sum(rhs),rhsMax =  -9.11439812512072E-08  9.51067944299842E+00
 cg2d: Sum(rhs),rhsMax =  -9.11286619498242E-08  9.51230836255520E+00
 cg2d: Sum(rhs),rhsMax =  -9.11128452685261E-08  9.51391232343393E+00
 cg2d: Sum(rhs),rhsMax =  -9.10978172896648E-08  9.51548598638282E+00
 cg2d: Sum(rhs),rhsMax =  -9.10825903588375E-08  9.51702443978652E+00
 cg2d: Sum(rhs),rhsMax =  -9.10679744947629E-08  9.51852327194360E+00
 cg2d: Sum(rhs),rhsMax =  -9.10538062726118E-08  9.51997861079381E+00
 cg2d: Sum(rhs),rhsMax =  -9.10403272769145E-08  9.52138713289450E+00
 cg2d: Sum(rhs),rhsMax =  -9.10271680254482E-08  9.52274605554116E+00
 cg2d: Sum(rhs),rhsMax =  -9.10143498344951E-08  9.52405313717331E+00
 cg2d: Sum(rhs),rhsMax =  -9.10022919242692E-08  9.52530666028232E+00
 cg2d: Sum(rhs),rhsMax =  -9.09905324419924E-08  9.52650541109617E+00
 cg2d: Sum(rhs),rhsMax =  -9.09794692915966E-08  9.52764864727963E+00
 cg2d: Sum(rhs),rhsMax =  -9.09689816808168E-08  9.52873605079492E+00
 cg2d: Sum(rhs),rhsMax =  -9.09588422359775E-08  9.52976767849440E+00
 cg2d: Sum(rhs),rhsMax =  -9.09493280687457E-08  9.53074391639987E+00
 cg2d: Sum(rhs),rhsMax =  -9.09404391791213E-08  9.53166530103624E+00
 cg2d: Sum(rhs),rhsMax =  -9.09316284491979E-08  9.53253252588939E+00
 EXTERNAL_FIELDS_LOAD, it=   3600210 : Reading new data, i0,i1=    4    5 (prev=    3    4 )
 DIC_FIELDS_LOAD, it=   3600210 : Reading new data, i0,i1=    4    5 (prev=    3    4 )
 cg2d: Sum(rhs),rhsMax =  -9.09236845814121E-08  9.53334634295211E+00
 cg2d: Sum(rhs),rhsMax =  -9.09162238826866E-08  9.53412016630968E+00
 cg2d: Sum(rhs),rhsMax =  -9.09088555545168E-08  9.53486144691540E+00
 cg2d: Sum(rhs),rhsMax =  -9.09020556605356E-08  9.53557668814411E+00
 cg2d: Sum(rhs),rhsMax =  -9.08950781308704E-08  9.53626990934916E+00
 cg2d: Sum(rhs),rhsMax =  -9.08885269268467E-08  9.53694479201801E+00
 cg2d: Sum(rhs),rhsMax =  -9.08819686173956E-08  9.53760402798875E+00
 cg2d: Sum(rhs),rhsMax =  -9.08758792661502E-08  9.53824943192211E+00
 cg2d: Sum(rhs),rhsMax =  -9.08692001644340E-08  9.53888215688552E+00
 cg2d: Sum(rhs),rhsMax =  -9.08633310814366E-08  9.53950304357000E+00
 cg2d: Sum(rhs),rhsMax =  -9.08575117364308E-08  9.54011304176576E+00
 cg2d: Sum(rhs),rhsMax =  -9.08516142317239E-08  9.54071301635899E+00
 cg2d: Sum(rhs),rhsMax =  -9.08458943627011E-08  9.54130322912294E+00
 cg2d: Sum(rhs),rhsMax =  -9.08400252797037E-08  9.54188272003942E+00
 cg2d: Sum(rhs),rhsMax =  -9.08349306882883E-08  9.54244934290944E+00
 cg2d: Sum(rhs),rhsMax =  -9.08295305634965E-08  9.54299999628384E+00
 cg2d: Sum(rhs),rhsMax =  -9.08241872821236E-08  9.54353092308816E+00
 cg2d: Sum(rhs),rhsMax =  -9.08189861092978E-08  9.54403796863502E+00
 cg2d: Sum(rhs),rhsMax =  -9.08142894218145E-08  9.54451678452915E+00
 cg2d: Sum(rhs),rhsMax =  -9.08097916862971E-08  9.54496303374895E+00
 cg2d: Sum(rhs),rhsMax =  -9.08056705384297E-08  9.54537256688658E+00
 cg2d: Sum(rhs),rhsMax =  -9.08016417611179E-08  9.54574155534994E+00
 cg2d: Sum(rhs),rhsMax =  -9.07979256226099E-08  9.54606657177462E+00
 cg2d: Sum(rhs),rhsMax =  -9.07952681927782E-08  9.54634467959792E+00
 cg2d: Sum(rhs),rhsMax =  -9.07924189164078E-08  9.54657345840157E+00
 cg2d: Sum(rhs),rhsMax =  -9.07902162339269E-08  9.54675102924543E+00
 cg2d: Sum(rhs),rhsMax =  -9.07886743561903E-08  9.54687605379506E+00
 cg2d: Sum(rhs),rhsMax =  -9.07877648614885E-08  9.54694771403842E+00
 cg2d: Sum(rhs),rhsMax =  -9.07869193156330E-08  9.54696566951997E+00
 cg2d: Sum(rhs),rhsMax =  -9.07865995714019E-08  9.54692999068711E+00
 cg2d: Sum(rhs),rhsMax =  -9.07872106381546E-08  9.54684108541375E+00
 cg2d: Sum(rhs),rhsMax =  -9.07884682987969E-08  9.54669963264824E+00
 cg2d: Sum(rhs),rhsMax =  -9.07898467517043E-08  9.54650651972953E+00
 cg2d: Sum(rhs),rhsMax =  -9.07915449488428E-08  9.54626274758502E+00
 cg2d: Sum(rhs),rhsMax =  -9.07941455352557E-08  9.54596935750525E+00
 cg2d: Sum(rhs),rhsMax =  -9.07970800767544E-08  9.54562738075971E+00
 cg2d: Sum(rhs),rhsMax =  -9.08000501453898E-08  9.54523778248193E+00
 cg2d: Sum(rhs),rhsMax =  -9.08038089164620E-08  9.54480140259877E+00
 cg2d: Sum(rhs),rhsMax =  -9.08078732209106E-08  9.54431888382345E+00
 cg2d: Sum(rhs),rhsMax =  -9.08128896526250E-08  9.54379063440704E+00
 cg2d: Sum(rhs),rhsMax =  -9.08179274006216E-08  9.54321682610369E+00
 cg2d: Sum(rhs),rhsMax =  -9.08231072571652E-08  9.54259741627488E+00
 cg2d: Sum(rhs),rhsMax =  -9.08294239820862E-08  9.54193218180504E+00
 cg2d: Sum(rhs),rhsMax =  -9.08357407070071E-08  9.54122075566689E+00
 cg2d: Sum(rhs),rhsMax =  -9.08426116552619E-08  9.54046266149910E+00
 cg2d: Sum(rhs),rhsMax =  -9.08497668206110E-08  9.53965734943055E+00
 cg2d: Sum(rhs),rhsMax =  -9.08576467395505E-08  9.53880424419014E+00
 cg2d: Sum(rhs),rhsMax =  -9.08659032461401E-08  9.53790282192021E+00
 cg2d: Sum(rhs),rhsMax =  -9.08746713434994E-08  9.53695268180845E+00
 cg2d: Sum(rhs),rhsMax =  -9.08840078750472E-08  9.53595362230667E+00
 cg2d: Sum(rhs),rhsMax =  -9.08936215182621E-08  9.53490571447803E+00
 cg2d: Sum(rhs),rhsMax =  -9.09042654484438E-08  9.53380930168364E+00
 cg2d: Sum(rhs),rhsMax =  -9.09145470018302E-08  9.53266493640869E+00
 cg2d: Sum(rhs),rhsMax =  -9.09259227910297E-08  9.53147332889492E+00
 cg2d: Sum(rhs),rhsMax =  -9.09384141323244E-08  9.53023537646442E+00
 cg2d: Sum(rhs),rhsMax =  -9.09505217805417E-08  9.52895220993865E+00
 cg2d: Sum(rhs),rhsMax =  -9.09629278567081E-08  9.52762520262973E+00
 cg2d: Sum(rhs),rhsMax =  -9.09757815747980E-08  9.52625594300855E+00
 cg2d: Sum(rhs),rhsMax =  -9.09892747813501E-08  9.52484621149773E+00
 cg2d: Sum(rhs),rhsMax =  -9.10029882561503E-08  9.52339794221070E+00
 EXTERNAL_FIELDS_LOAD, it=   3600270 : Reading new data, i0,i1=    5    6 (prev=    4    5 )
 DIC_FIELDS_LOAD, it=   3600270 : Reading new data, i0,i1=    5    6 (prev=    4    5 )
 cg2d: Sum(rhs),rhsMax =  -9.10169930534721E-08  9.52191318167782E+00
 cg2d: Sum(rhs),rhsMax =  -9.10311257484864E-08  9.52041761022813E+00
 cg2d: Sum(rhs),rhsMax =  -9.10455213443129E-08  9.51892843351038E+00
 cg2d: Sum(rhs),rhsMax =  -9.10593485059508E-08  9.51746258399289E+00
 cg2d: Sum(rhs),rhsMax =  -9.10729625047679E-08  9.51603636817957E+00
 cg2d: Sum(rhs),rhsMax =  -9.10860507019606E-08  9.51466517931999E+00
 cg2d: Sum(rhs),rhsMax =  -9.10986344138109E-08  9.51336322967766E+00
 cg2d: Sum(rhs),rhsMax =  -9.11102233658312E-08  9.51214329321166E+00
 cg2d: Sum(rhs),rhsMax =  -9.11212367782355E-08  9.51101645114812E+00
 cg2d: Sum(rhs),rhsMax =  -9.11308219997409E-08  9.50999185515969E+00
 cg2d: Sum(rhs),rhsMax =  -9.11397606273567E-08  9.50907652378690E+00
 cg2d: Sum(rhs),rhsMax =  -9.11473847509114E-08  9.50827517814543E+00
 cg2d: Sum(rhs),rhsMax =  -9.11540354309182E-08  9.50759014752173E+00
 cg2d: Sum(rhs),rhsMax =  -9.11595421371203E-08  9.50702134377118E+00
 cg2d: Sum(rhs),rhsMax =  -9.11640682943471E-08  9.50656629011210E+00
 cg2d: Sum(rhs),rhsMax =  -9.11673012637948E-08  9.50622019182364E+00
 cg2d: Sum(rhs),rhsMax =  -9.11696744765322E-08  9.50597606771963E+00
 cg2d: Sum(rhs),rhsMax =  -9.11708539774736E-08  9.50582494250500E+00
 cg2d: Sum(rhs),rhsMax =  -9.11716497853376E-08  9.50575608648473E+00
 cg2d: Sum(rhs),rhsMax =  -9.11714224116622E-08  9.50575729587021E+00
 cg2d: Sum(rhs),rhsMax =  -9.11708468720462E-08  9.50581523373235E+00
 cg2d: Sum(rhs),rhsMax =  -9.11699018502077E-08  9.50591575069248E+00
 cg2d: Sum(rhs),rhsMax =  -9.11685589244371E-08  9.50604420974297E+00
 cg2d: Sum(rhs),rhsMax =  -9.11669744141363E-08  9.50618583284504E+00
 cg2d: Sum(rhs),rhsMax =  -9.11656883317846E-08  9.50632606101357E+00
 cg2d: Sum(rhs),rhsMax =  -9.11643525114414E-08  9.50645090757042E+00
 cg2d: Sum(rhs),rhsMax =  -9.11635567035773E-08  9.50654729113363E+00
 cg2d: Sum(rhs),rhsMax =  -9.11632938027651E-08  9.50660334354173E+00
 cg2d: Sum(rhs),rhsMax =  -9.11633009081925E-08  9.50660868062301E+00
 cg2d: Sum(rhs),rhsMax =  -9.11639332912273E-08  9.50655462562515E+00
 cg2d: Sum(rhs),rhsMax =  -9.11649706836215E-08  9.50643436311089E+00
 cg2d: Sum(rhs),rhsMax =  -9.11672302095212E-08  9.50624304674150E+00
 cg2d: Sum(rhs),rhsMax =  -9.11696460548228E-08  9.50597781905916E+00
 cg2d: Sum(rhs),rhsMax =  -9.11727440211507E-08  9.50563777710892E+00
 cg2d: Sum(rhs),rhsMax =  -9.11770854372662E-08  9.50522393135291E+00
 cg2d: Sum(rhs),rhsMax =  -9.11816186999204E-08  9.50473911463816E+00
 cg2d: Sum(rhs),rhsMax =  -9.11870614572763E-08  9.50418773930678E+00
 cg2d: Sum(rhs),rhsMax =  -9.11928168534359E-08  9.50357558691374E+00
 cg2d: Sum(rhs),rhsMax =  -9.11992827923314E-08  9.50290964447458E+00
 cg2d: Sum(rhs),rhsMax =  -9.12065729608003E-08  9.50219791542795E+00
 cg2d: Sum(rhs),rhsMax =  -9.12139270781154E-08  9.50144918276843E+00
 cg2d: Sum(rhs),rhsMax =  -9.12212811954305E-08  9.50067274580360E+00
 cg2d: Sum(rhs),rhsMax =  -9.12293955934729E-08  9.49987815929010E+00
 cg2d: Sum(rhs),rhsMax =  -9.12369131356172E-08  9.49907498366882E+00
 cg2d: Sum(rhs),rhsMax =  -9.12447788437021E-08  9.49827255755378E+00
 cg2d: Sum(rhs),rhsMax =  -9.12528008711888E-08  9.49747978836020E+00
 cg2d: Sum(rhs),rhsMax =  -9.12602686753416E-08  9.49670496341604E+00
 cg2d: Sum(rhs),rhsMax =  -9.12679780640246E-08  9.49595558374171E+00
 cg2d: Sum(rhs),rhsMax =  -9.12747850634332E-08  9.49523821505845E+00
 cg2d: Sum(rhs),rhsMax =  -9.12811941589098E-08  9.49455836839740E+00
 cg2d: Sum(rhs),rhsMax =  -9.12878306280618E-08  9.49392042323925E+00
 cg2d: Sum(rhs),rhsMax =  -9.12937139219139E-08  9.49332754785973E+00
 cg2d: Sum(rhs),rhsMax =  -9.12992632606802E-08  9.49278165465699E+00
 cg2d: Sum(rhs),rhsMax =  -9.13035833605136E-08  9.49228339433203E+00
 cg2d: Sum(rhs),rhsMax =  -9.13086424247922E-08  9.49183218209292E+00
 cg2d: Sum(rhs),rhsMax =  -9.13127422563775E-08  9.49142625728328E+00
 cg2d: Sum(rhs),rhsMax =  -9.13163518134752E-08  9.49106276286301E+00
 cg2d: Sum(rhs),rhsMax =  -9.13194782015125E-08  9.49073783789306E+00
 cg2d: Sum(rhs),rhsMax =  -9.13225406407037E-08  9.49044672400271E+00
 cg2d: Sum(rhs),rhsMax =  -9.13253046519458E-08  9.49018390323782E+00
 EXTERNAL_FIELDS_LOAD, it=   3600330 : Reading new data, i0,i1=    6    7 (prev=    5    6 )
 DIC_FIELDS_LOAD, it=   3600330 : Reading new data, i0,i1=    6    7 (prev=    5    6 )
 cg2d: Sum(rhs),rhsMax =  -9.13276210212643E-08  9.48994325700856E+00
 cg2d: Sum(rhs),rhsMax =  -9.13303352945150E-08  9.48970801758053E+00
 cg2d: Sum(rhs),rhsMax =  -9.13328221940901E-08  9.48946471682098E+00
 cg2d: Sum(rhs),rhsMax =  -9.13353943587936E-08  9.48919980375378E+00
 cg2d: Sum(rhs),rhsMax =  -9.13383644274290E-08  9.48889996251626E+00
 cg2d: Sum(rhs),rhsMax =  -9.13418460868343E-08  9.48855235316500E+00
 cg2d: Sum(rhs),rhsMax =  -9.13461093432488E-08  9.48814487205053E+00
 cg2d: Sum(rhs),rhsMax =  -9.13508344524416E-08  9.48766639266868E+00
 cg2d: Sum(rhs),rhsMax =  -9.13563624749258E-08  9.48710698236420E+00
 cg2d: Sum(rhs),rhsMax =  -9.13624518261713E-08  9.48645808347463E+00
 cg2d: Sum(rhs),rhsMax =  -9.13698130489138E-08  9.48571268422533E+00
 cg2d: Sum(rhs),rhsMax =  -9.13783111400335E-08  9.48486545850383E+00
 cg2d: Sum(rhs),rhsMax =  -9.13876760932908E-08  9.48391285858374E+00
 cg2d: Sum(rhs),rhsMax =  -9.13977800109933E-08  9.48285315351105E+00
 cg2d: Sum(rhs),rhsMax =  -9.14093334358768E-08  9.48168641391458E+00
 cg2d: Sum(rhs),rhsMax =  -9.14215760872139E-08  9.48041445516485E+00
 cg2d: Sum(rhs),rhsMax =  -9.14348703418000E-08  9.47904073781749E+00
 cg2d: Sum(rhs),rhsMax =  -9.14490314585237E-08  9.47757022510765E+00
 cg2d: Sum(rhs),rhsMax =  -9.14641802296501E-08  9.47600920384239E+00
 cg2d: Sum(rhs),rhsMax =  -9.14802384954783E-08  9.47436507523804E+00
 cg2d: Sum(rhs),rhsMax =  -9.14970428311790E-08  9.47264612546539E+00
 cg2d: Sum(rhs),rhsMax =  -9.15143658630768E-08  9.47086128598380E+00
 cg2d: Sum(rhs),rhsMax =  -9.15317244221114E-08  9.46901988541289E+00
 cg2d: Sum(rhs),rhsMax =  -9.15503548526431E-08  9.46713139755286E+00
 cg2d: Sum(rhs),rhsMax =  -9.15688005420634E-08  9.46520519129246E+00
 cg2d: Sum(rhs),rhsMax =  -9.15879354579374E-08  9.46325027783096E+00
 cg2d: Sum(rhs),rhsMax =  -9.16070561629567E-08  9.46127510172983E+00
 cg2d: Sum(rhs),rhsMax =  -9.16269016215665E-08  9.45928736176468E+00
 cg2d: Sum(rhs),rhsMax =  -9.16458375854745E-08  9.45729384446051E+00
 cg2d: Sum(rhs),rhsMax =  -9.16652354021608E-08  9.45530032221759E+00
 cg2d: Sum(rhs),rhsMax =  -9.16847469056847E-08  9.45331147339530E+00
 cg2d: Sum(rhs),rhsMax =  -9.17041660386531E-08  9.45133082537812E+00
 cg2d: Sum(rhs),rhsMax =  -9.17234714847837E-08  9.44936073119909E+00
 cg2d: Sum(rhs),rhsMax =  -9.17423008672813E-08  9.44740238220463E+00
 cg2d: Sum(rhs),rhsMax =  -9.17614002560185E-08  9.44545585645758E+00
 cg2d: Sum(rhs),rhsMax =  -9.17801870059520E-08  9.44352020252140E+00
 cg2d: Sum(rhs),rhsMax =  -9.17989737558855E-08  9.44159355733174E+00
 cg2d: Sum(rhs),rhsMax =  -9.18179097197935E-08  9.43967327626014E+00
 cg2d: Sum(rhs),rhsMax =  -9.18367177860091E-08  9.43775607395104E+00
 cg2d: Sum(rhs),rhsMax =  -9.18552629514124E-08  9.43583817490269E+00
 cg2d: Sum(rhs),rhsMax =  -9.18742912858761E-08  9.43391546318717E+00
 cg2d: Sum(rhs),rhsMax =  -9.18933977800407E-08  9.43198362529795E+00
 cg2d: Sum(rhs),rhsMax =  -9.19123053222393E-08  9.43003828806143E+00
 cg2d: Sum(rhs),rhsMax =  -9.19319091963189E-08  9.42807514245689E+00
 cg2d: Sum(rhs),rhsMax =  -9.19516196518089E-08  9.42609005034801E+00
 cg2d: Sum(rhs),rhsMax =  -9.19711453661876E-08  9.42407914155286E+00
 cg2d: Sum(rhs),rhsMax =  -9.19916374186869E-08  9.42203890101561E+00
 cg2d: Sum(rhs),rhsMax =  -9.20122005254598E-08  9.41996625280574E+00
 cg2d: Sum(rhs),rhsMax =  -9.20328773190704E-08  9.41785862954787E+00
 cg2d: Sum(rhs),rhsMax =  -9.20541722848611E-08  9.41571402403211E+00
 cg2d: Sum(rhs),rhsMax =  -9.20761920042423E-08  9.41353104362712E+00
 cg2d: Sum(rhs),rhsMax =  -9.20975224971698E-08  9.41130897700722E+00
 cg2d: Sum(rhs),rhsMax =  -9.21202243375774E-08  9.40904782014454E+00
 cg2d: Sum(rhs),rhsMax =  -9.21427556477283E-08  9.40674826682519E+00
 cg2d: Sum(rhs),rhsMax =  -9.21658624974953E-08  9.40441167656376E+00
 cg2d: Sum(rhs),rhsMax =  -9.21897651551262E-08  9.40204003109270E+00
 cg2d: Sum(rhs),rhsMax =  -9.22136393910478E-08  9.39963588692061E+00
 cg2d: Sum(rhs),rhsMax =  -9.22377765277815E-08  9.39720232327049E+00
 cg2d: Sum(rhs),rhsMax =  -9.22617147125493E-08  9.39474287623570E+00
 cg2d: Sum(rhs),rhsMax =  -9.22866476571471E-08  9.39226147078604E+00
 EXTERNAL_FIELDS_LOAD, it=   3600390 : Reading new data, i0,i1=    7    8 (prev=    6    7 )
 DIC_FIELDS_LOAD, it=   3600390 : Reading new data, i0,i1=    7    8 (prev=    6    7 )
 cg2d: Sum(rhs),rhsMax =  -9.23120353490958E-08  9.38976233427929E+00
 cg2d: Sum(rhs),rhsMax =  -9.23369185557021E-08  9.38724381347799E+00
 cg2d: Sum(rhs),rhsMax =  -9.23620930848301E-08  9.38470550458213E+00
 cg2d: Sum(rhs),rhsMax =  -9.23878431535741E-08  9.38214640732935E+00
 cg2d: Sum(rhs),rhsMax =  -9.24133303215058E-08  9.37956498127073E+00
 cg2d: Sum(rhs),rhsMax =  -9.24395564538827E-08  9.37695924403383E+00
 cg2d: Sum(rhs),rhsMax =  -9.24659673273709E-08  9.37432689628576E+00
 cg2d: Sum(rhs),rhsMax =  -9.24926268908166E-08  9.37166545130188E+00
 cg2d: Sum(rhs),rhsMax =  -9.25199330481519E-08  9.36897236493602E+00
 cg2d: Sum(rhs),rhsMax =  -9.25472107837777E-08  9.36624514198210E+00
 cg2d: Sum(rhs),rhsMax =  -9.25749148450450E-08  9.36348144222541E+00
 cg2d: Sum(rhs),rhsMax =  -9.26027894365689E-08  9.36067916467522E+00
 cg2d: Sum(rhs),rhsMax =  -9.26316801042049E-08  9.35783651518778E+00
 cg2d: Sum(rhs),rhsMax =  -9.26604357687211E-08  9.35495205473915E+00
 cg2d: Sum(rhs),rhsMax =  -9.26899872411013E-08  9.35202472862356E+00
 cg2d: Sum(rhs),rhsMax =  -9.27198087197212E-08  9.34905386050751E+00
 cg2d: Sum(rhs),rhsMax =  -9.27502270542391E-08  9.34603912446753E+00
 cg2d: Sum(rhs),rhsMax =  -9.27809580275607E-08  9.34298052032945E+00
 cg2d: Sum(rhs),rhsMax =  -9.28122148025068E-08  9.33987837125357E+00
 cg2d: Sum(rhs),rhsMax =  -9.28438836922396E-08  9.33673332003228E+00
 cg2d: Sum(rhs),rhsMax =  -9.28756591633828E-08  9.33354631509102E+00
 cg2d: Sum(rhs),rhsMax =  -9.29085999246126E-08  9.33031856217985E+00
 cg2d: Sum(rhs),rhsMax =  -9.29414056827227E-08  9.32705144157814E+00
 cg2d: Sum(rhs),rhsMax =  -9.29742824951063E-08  9.32374640924821E+00
 cg2d: Sum(rhs),rhsMax =  -9.30079835370634E-08  9.32040491207867E+00
 cg2d: Sum(rhs),rhsMax =  -9.30417982658582E-08  9.31702830536998E+00
 cg2d: Sum(rhs),rhsMax =  -9.30764798567907E-08  9.31361778906816E+00
 cg2d: Sum(rhs),rhsMax =  -9.31104011669959E-08  9.31017435680010E+00
 cg2d: Sum(rhs),rhsMax =  -9.31454593455783E-08  9.30669874783390E+00
 cg2d: Sum(rhs),rhsMax =  -9.31809367443748E-08  9.30319140183628E+00
 cg2d: Sum(rhs),rhsMax =  -9.32159238686836E-08  9.29965242032067E+00
 cg2d: Sum(rhs),rhsMax =  -9.32518702256857E-08  9.29608155387300E+00
 cg2d: Sum(rhs),rhsMax =  -9.32883352788849E-08  9.29247816276956E+00
 cg2d: Sum(rhs),rhsMax =  -9.33245232204172E-08  9.28884120452690E+00
 cg2d: Sum(rhs),rhsMax =  -9.33613577558390E-08  9.28516924951164E+00
 cg2d: Sum(rhs),rhsMax =  -9.33982562401070E-08  9.28146051649491E+00
 cg2d: Sum(rhs),rhsMax =  -9.34364479121541E-08  9.27771291851975E+00
 cg2d: Sum(rhs),rhsMax =  -9.34740143065937E-08  9.27392411497484E+00
 cg2d: Sum(rhs),rhsMax =  -9.35126251988549E-08  9.27009157616147E+00
 cg2d: Sum(rhs),rhsMax =  -9.35518329470142E-08  9.26621266064052E+00
 cg2d: Sum(rhs),rhsMax =  -9.35912964905583E-08  9.26228469753356E+00
 cg2d: Sum(rhs),rhsMax =  -9.36311082000429E-08  9.25830502540661E+00
 cg2d: Sum(rhs),rhsMax =  -9.36718080879473E-08  9.25427104022615E+00
 cg2d: Sum(rhs),rhsMax =  -9.37130835154676E-08  9.25018025806528E+00
 cg2d: Sum(rhs),rhsMax =  -9.37547639523473E-08  9.24603037476154E+00
 cg2d: Sum(rhs),rhsMax =  -9.37974888870485E-08  9.24181932462259E+00
 cg2d: Sum(rhs),rhsMax =  -9.38402919814507E-08  9.23754533703139E+00
 cg2d: Sum(rhs),rhsMax =  -9.38843172093584E-08  9.23320698439808E+00
 cg2d: Sum(rhs),rhsMax =  -9.39290814017113E-08  9.22880321317793E+00
 cg2d: Sum(rhs),rhsMax =  -9.39739734917566E-08  9.22433335164241E+00
 cg2d: Sum(rhs),rhsMax =  -9.40200521881707E-08  9.21979710173837E+00
 cg2d: Sum(rhs),rhsMax =  -9.40667135296280E-08  9.21519452384442E+00
 cg2d: Sum(rhs),rhsMax =  -9.41140712029664E-08  9.21052602027441E+00
 cg2d: Sum(rhs),rhsMax =  -9.41621181027585E-08  9.20579231856880E+00
 cg2d: Sum(rhs),rhsMax =  -9.42108115964402E-08  9.20099445172383E+00
 cg2d: Sum(rhs),rhsMax =  -9.42603506359774E-08  9.19613373409314E+00
 cg2d: Sum(rhs),rhsMax =  -9.43106570616692E-08  9.19121172891709E+00
 cg2d: Sum(rhs),rhsMax =  -9.43619582471911E-08  9.18623021276131E+00
 cg2d: Sum(rhs),rhsMax =  -9.44129254776271E-08  9.18119115032627E+00
 cg2d: Sum(rhs),rhsMax =  -9.44648874678933E-08  9.17609666859133E+00
 EXTERNAL_FIELDS_LOAD, it=   3600450 : Reading new data, i0,i1=    8    9 (prev=    7    8 )
 DIC_FIELDS_LOAD, it=   3600450 : Reading new data, i0,i1=    8    9 (prev=    7    8 )
 cg2d: Sum(rhs),rhsMax =  -9.45180929079470E-08  9.17094900539886E+00
 cg2d: Sum(rhs),rhsMax =  -9.45713196642828E-08  9.16576037761048E+00
 cg2d: Sum(rhs),rhsMax =  -9.46249869571147E-08  9.16053907873528E+00
 cg2d: Sum(rhs),rhsMax =  -9.46787679367844E-08  9.15529303788953E+00
 cg2d: Sum(rhs),rhsMax =  -9.47327123412833E-08  9.15002961005962E+00
 cg2d: Sum(rhs),rhsMax =  -9.47873814993727E-08  9.14475542293395E+00
 cg2d: Sum(rhs),rhsMax =  -9.48415888046839E-08  9.13947626776025E+00
 cg2d: Sum(rhs),rhsMax =  -9.48963148061921E-08  9.13419703804716E+00
 cg2d: Sum(rhs),rhsMax =  -9.49505718494947E-08  9.12892171232682E+00
 cg2d: Sum(rhs),rhsMax =  -9.50055820680973E-08  9.12365335338700E+00
 cg2d: Sum(rhs),rhsMax =  -9.50602441207593E-08  9.11839411243203E+00
 cg2d: Sum(rhs),rhsMax =  -9.51149274897034E-08  9.11314523538299E+00
 cg2d: Sum(rhs),rhsMax =  -9.51689713701853E-08  9.10790707134369E+00
 cg2d: Sum(rhs),rhsMax =  -9.52241663298992E-08  9.10267908920085E+00
 cg2d: Sum(rhs),rhsMax =  -9.52785583763216E-08  9.09745990818067E+00
 cg2d: Sum(rhs),rhsMax =  -9.53332346398383E-08  9.09224734512777E+00
 cg2d: Sum(rhs),rhsMax =  -9.53879322196372E-08  9.08703847736888E+00
 cg2d: Sum(rhs),rhsMax =  -9.54423811094784E-08  9.08182972075513E+00
 cg2d: Sum(rhs),rhsMax =  -9.54974623823546E-08  9.07661692347198E+00
 cg2d: Sum(rhs),rhsMax =  -9.55527141854873E-08  9.07139547821490E+00
 cg2d: Sum(rhs),rhsMax =  -9.56078878289190E-08  9.06616045270155E+00
 cg2d: Sum(rhs),rhsMax =  -9.56632462134621E-08  9.06090673305150E+00
 cg2d: Sum(rhs),rhsMax =  -9.57190593453561E-08  9.05562917574046E+00
 cg2d: Sum(rhs),rhsMax =  -9.57753982788745E-08  9.05032276301453E+00
 cg2d: Sum(rhs),rhsMax =  -9.58323127520089E-08  9.04498274779792E+00
 cg2d: Sum(rhs),rhsMax =  -9.58890566948867E-08  9.03960479010611E+00
 cg2d: Sum(rhs),rhsMax =  -9.59469090844323E-08  9.03418508103277E+00
 cg2d: Sum(rhs),rhsMax =  -9.60046975251316E-08  9.02872044807494E+00
 cg2d: Sum(rhs),rhsMax =  -9.60634949365158E-08  9.02320843719522E+00
 cg2d: Sum(rhs),rhsMax =  -9.61234505325592E-08  9.01764736350553E+00
 cg2d: Sum(rhs),rhsMax =  -9.61829158541150E-08  9.01203632711249E+00
 cg2d: Sum(rhs),rhsMax =  -9.62436175200310E-08  9.00637519234014E+00
 cg2d: Sum(rhs),rhsMax =  -9.63047241953063E-08  9.00066454100738E+00
 cg2d: Sum(rhs),rhsMax =  -9.63663566722062E-08  8.99490560644289E+00
 cg2d: Sum(rhs),rhsMax =  -9.64286215321408E-08  8.98910019830229E+00
 cg2d: Sum(rhs),rhsMax =  -9.64914832479735E-08  8.98325060608421E+00
 cg2d: Sum(rhs),rhsMax =  -9.65549631359863E-08  8.97735949860674E+00
 cg2d: Sum(rhs),rhsMax =  -9.66191180395981E-08  8.97142982445055E+00
 cg2d: Sum(rhs),rhsMax =  -9.66832942594920E-08  8.96546471599943E+00
 cg2d: Sum(rhs),rhsMax =  -9.67482520763951E-08  8.95946740124540E+00
 cg2d: Sum(rhs),rhsMax =  -9.68132098932983E-08  8.95344112713886E+00
 cg2d: Sum(rhs),rhsMax =  -9.68790274669118E-08  8.94738909112794E+00
 cg2d: Sum(rhs),rhsMax =  -9.69447810916790E-08  8.94131438207753E+00
 cg2d: Sum(rhs),rhsMax =  -9.70111884157632E-08  8.93521991327319E+00
 cg2d: Sum(rhs),rhsMax =  -9.70773115227530E-08  8.92910833888471E+00
 cg2d: Sum(rhs),rhsMax =  -9.71445075492738E-08  8.92298199747039E+00
 cg2d: Sum(rhs),rhsMax =  -9.72113554098541E-08  8.91684290726808E+00
 cg2d: Sum(rhs),rhsMax =  -9.72787574937684E-08  8.91069264633776E+00
 cg2d: Sum(rhs),rhsMax =  -9.73459535202892E-08  8.90453228797114E+00
 cg2d: Sum(rhs),rhsMax =  -9.74135971887335E-08  8.89836249714105E+00
 cg2d: Sum(rhs),rhsMax =  -9.74817027099562E-08  8.89218368115518E+00
 cg2d: Sum(rhs),rhsMax =  -9.75496519117769E-08  8.88599608996445E+00
 cg2d: Sum(rhs),rhsMax =  -9.76179350686834E-08  8.87979980032782E+00
 cg2d: Sum(rhs),rhsMax =  -9.76860476953334E-08  8.87359466021019E+00
 cg2d: Sum(rhs),rhsMax =  -9.77549490244201E-08  8.86737992136571E+00
 cg2d: Sum(rhs),rhsMax =  -9.78237792992331E-08  8.86115449881272E+00
 cg2d: Sum(rhs),rhsMax =  -9.78925882577641E-08  8.85491714939279E+00
 cg2d: Sum(rhs),rhsMax =  -9.79620651264668E-08  8.84866650814923E+00
 cg2d: Sum(rhs),rhsMax =  -9.80318830556826E-08  8.84239908862083E+00
 cg2d: Sum(rhs),rhsMax =  -9.81016583523342E-08  8.83611205511795E+00
 EXTERNAL_FIELDS_LOAD, it=   3600510 : Reading new data, i0,i1=    9   10 (prev=    8    9 )
 DIC_FIELDS_LOAD, it=   3600510 : Reading new data, i0,i1=    9   10 (prev=    8    9 )
 cg2d: Sum(rhs),rhsMax =  -9.81721868242857E-08  8.82980306034887E+00
 cg2d: Sum(rhs),rhsMax =  -9.82427721396562E-08  8.82347164349139E+00
 cg2d: Sum(rhs),rhsMax =  -9.83135990395567E-08  8.81711735596894E+00
 cg2d: Sum(rhs),rhsMax =  -9.83851720093298E-08  8.81074020360017E+00
 cg2d: Sum(rhs),rhsMax =  -9.84564962891454E-08  8.80434063629974E+00
 cg2d: Sum(rhs),rhsMax =  -9.85286376931072E-08  8.79791959804717E+00
 cg2d: Sum(rhs),rhsMax =  -9.86011414738641E-08  8.79147850051498E+00
 cg2d: Sum(rhs),rhsMax =  -9.86734960406466E-08  8.78501923806664E+00
 cg2d: Sum(rhs),rhsMax =  -9.87464900958912E-08  8.77854412431977E+00
 cg2d: Sum(rhs),rhsMax =  -9.88197470519481E-08  8.77205585109022E+00
 cg2d: Sum(rhs),rhsMax =  -9.88934729662105E-08  8.76555740298602E+00
 cg2d: Sum(rhs),rhsMax =  -9.89669146633787E-08  8.75905198910442E+00
 cg2d: Sum(rhs),rhsMax =  -9.90407258427695E-08  8.75254295465281E+00
 cg2d: Sum(rhs),rhsMax =  -9.91145014950234E-08  8.74603368964057E+00
 cg2d: Sum(rhs),rhsMax =  -9.91886466295000E-08  8.73952755244439E+00
 cg2d: Sum(rhs),rhsMax =  -9.92623157003436E-08  8.73302782624689E+00
 cg2d: Sum(rhs),rhsMax =  -9.93363400425551E-08  8.72653766294564E+00
 cg2d: Sum(rhs),rhsMax =  -9.94104141227581E-08  8.72006002219781E+00
 cg2d: Sum(rhs),rhsMax =  -9.94844668866790E-08  8.71359759621992E+00
 cg2d: Sum(rhs),rhsMax =  -9.95583775420528E-08  8.70715278372291E+00
 cg2d: Sum(rhs),rhsMax =  -9.96322597757171E-08  8.70072771032166E+00
 cg2d: Sum(rhs),rhsMax =  -9.97059714791249E-08  8.69432422374462E+00
 cg2d: Sum(rhs),rhsMax =  -9.97792923840279E-08  8.68794392220557E+00
 cg2d: Sum(rhs),rhsMax =  -9.98527127649140E-08  8.68159287495532E+00
 cg2d: Sum(rhs),rhsMax =  -9.99256144496030E-08  8.67527594836007E+00
 cg2d: Sum(rhs),rhsMax =  -9.99983740257449E-08  8.66899648662334E+00
 cg2d: Sum(rhs),rhsMax =  -1.00070764119664E-07  8.66275674813775E+00
 cg2d: Sum(rhs),rhsMax =  -1.00142791836788E-07  8.65655808426570E+00
 cg2d: Sum(rhs),rhsMax =  -1.00214123222031E-07  8.65040095427649E+00
 cg2d: Sum(rhs),rhsMax =  -1.00285419080137E-07  8.64428511771589E+00
 cg2d: Sum(rhs),rhsMax =  -1.00356203347474E-07  8.63820779072895E+00
 cg2d: Sum(rhs),rhsMax =  -1.00426881033400E-07  8.63216610266613E+00
 cg2d: Sum(rhs),rhsMax =  -1.00497182131676E-07  8.62615664857018E+00
 cg2d: Sum(rhs),rhsMax =  -1.00566929006618E-07  8.62017549344574E+00
 cg2d: Sum(rhs),rhsMax =  -1.00636839306389E-07  8.61421824973427E+00
 cg2d: Sum(rhs),rhsMax =  -1.00706515127058E-07  8.60828014305759E+00
 cg2d: Sum(rhs),rhsMax =  -1.00776318845419E-07  8.60235619466164E+00
 cg2d: Sum(rhs),rhsMax =  -1.00845916506387E-07  8.59644141396147E+00
 cg2d: Sum(rhs),rhsMax =  -1.00915485745645E-07  8.59053104903554E+00
 cg2d: Sum(rhs),rhsMax =  -1.00985261042297E-07  8.58462072248315E+00
 cg2d: Sum(rhs),rhsMax =  -1.01055491086299E-07  8.57870663714626E+00
 cg2d: Sum(rhs),rhsMax =  -1.01125422702353E-07  8.57278566865890E+00
 cg2d: Sum(rhs),rhsMax =  -1.01195716695202E-07  8.56685532083521E+00
 cg2d: Sum(rhs),rhsMax =  -1.01266216745444E-07  8.56091374139585E+00
 cg2d: Sum(rhs),rhsMax =  -1.01337192859319E-07  8.55495975914983E+00
 cg2d: Sum(rhs),rhsMax =  -1.01408346608878E-07  8.54899275863313E+00
 cg2d: Sum(rhs),rhsMax =  -1.01479535885574E-07  8.54301265247851E+00
 cg2d: Sum(rhs),rhsMax =  -1.01551435705005E-07  8.53701978569626E+00
 cg2d: Sum(rhs),rhsMax =  -1.01622724457684E-07  8.53101490472480E+00
 cg2d: Sum(rhs),rhsMax =  -1.01695292187287E-07  8.52499919193590E+00
 cg2d: Sum(rhs),rhsMax =  -1.01767554383514E-07  8.51897431341724E+00
 cg2d: Sum(rhs),rhsMax =  -1.01840242905382E-07  8.51294235247767E+00
 cg2d: Sum(rhs),rhsMax =  -1.01912846162122E-07  8.50690569200869E+00
 cg2d: Sum(rhs),rhsMax =  -1.01985413891725E-07  8.50087005576702E+00
 cg2d: Sum(rhs),rhsMax =  -1.02058450579534E-07  8.49484015017416E+00
 cg2d: Sum(rhs),rhsMax =  -1.02131188839394E-07  8.48882063673028E+00
 cg2d: Sum(rhs),rhsMax =  -1.02203856044980E-07  8.48281607441673E+00
 cg2d: Sum(rhs),rhsMax =  -1.02276672464541E-07  8.47683086082370E+00
 cg2d: Sum(rhs),rhsMax =  -1.02349595465512E-07  8.47086915096995E+00
 cg2d: Sum(rhs),rhsMax =  -1.02421360281824E-07  8.46493476809303E+00
 EXTERNAL_FIELDS_LOAD, it=   3600570 : Reading new data, i0,i1=   10   11 (prev=    9   10 )
 DIC_FIELDS_LOAD, it=   3600570 : Reading new data, i0,i1=   10   11 (prev=    9   10 )
 cg2d: Sum(rhs),rhsMax =  -1.02493515896640E-07  8.45903109783263E+00
 cg2d: Sum(rhs),rhsMax =  -1.02564975179575E-07  8.45319648993583E+00
 cg2d: Sum(rhs),rhsMax =  -1.02634501786270E-07  8.44745634270964E+00
 cg2d: Sum(rhs),rhsMax =  -1.02703893389844E-07  8.44183524325516E+00
 cg2d: Sum(rhs),rhsMax =  -1.02770819410125E-07  8.43635626330932E+00
 cg2d: Sum(rhs),rhsMax =  -1.02836231974379E-07  8.43104036727980E+00
 cg2d: Sum(rhs),rhsMax =  -1.02899214482477E-07  8.42590597581903E+00
 cg2d: Sum(rhs),rhsMax =  -1.02960150627496E-07  8.42096861540595E+00
 cg2d: Sum(rhs),rhsMax =  -1.03018727770632E-07  8.41624063283881E+00
 cg2d: Sum(rhs),rhsMax =  -1.03074462742825E-07  8.41173099284368E+00
 cg2d: Sum(rhs),rhsMax =  -1.03127582917750E-07  8.40744522364360E+00
 cg2d: Sum(rhs),rhsMax =  -1.03177704602331E-07  8.40338548638234E+00
 cg2d: Sum(rhs),rhsMax =  -1.03225289649345E-07  8.39955071057647E+00
 cg2d: Sum(rhs),rhsMax =  -1.03270444640202E-07  8.39593686353065E+00
 cg2d: Sum(rhs),rhsMax =  -1.03312800092681E-07  8.39253726007720E+00
 cg2d: Sum(rhs),rhsMax =  -1.03352554958747E-07  8.38934286490718E+00
 cg2d: Sum(rhs),rhsMax =  -1.03389886874083E-07  8.38634267692018E+00
 cg2d: Sum(rhs),rhsMax =  -1.03425186637196E-07  8.38352418466840E+00
 cg2d: Sum(rhs),rhsMax =  -1.03458575040349E-07  8.38087384792736E+00
 cg2d: Sum(rhs),rhsMax =  -1.03489654179612E-07  8.37837764295235E+00
 cg2d: Sum(rhs),rhsMax =  -1.03519347760539E-07  8.37602165023152E+00
 cg2d: Sum(rhs),rhsMax =  -1.03547364460610E-07  8.37379265495454E+00
 cg2d: Sum(rhs),rhsMax =  -1.03573896126363E-07  8.37167859305842E+00
 cg2d: Sum(rhs),rhsMax =  -1.03599155920620E-07  8.36966841617237E+00
 cg2d: Sum(rhs),rhsMax =  -1.03623357006200E-07  8.36775262363169E+00
 cg2d: Sum(rhs),rhsMax =  -1.03646584648232E-07  8.36592322530019E+00
 cg2d: Sum(rhs),rhsMax =  -1.03668426731929E-07  8.36417370361670E+00
 cg2d: Sum(rhs),rhsMax =  -1.03689806962848E-07  8.36249893566327E+00
 cg2d: Sum(rhs),rhsMax =  -1.03710164012227E-07  8.36089512198643E+00
 cg2d: Sum(rhs),rhsMax =  -1.03729064448999E-07  8.35935972193128E+00
 cg2d: Sum(rhs),rhsMax =  -1.03747986202052E-07  8.35789132052859E+00
 cg2d: Sum(rhs),rhsMax =  -1.03765373182796E-07  8.35648953984663E+00
 cg2d: Sum(rhs),rhsMax =  -1.03782369365035E-07  8.35515503666620E+00
 cg2d: Sum(rhs),rhsMax =  -1.03798733164240E-07  8.35388959337713E+00
 cg2d: Sum(rhs),rhsMax =  -1.03813491136862E-07  8.35269612989214E+00
 cg2d: Sum(rhs),rhsMax =  -1.03827638042731E-07  8.35157865319166E+00
 cg2d: Sum(rhs),rhsMax =  -1.03841280463257E-07  8.35054220321588E+00
 cg2d: Sum(rhs),rhsMax =  -1.03853331268056E-07  8.34959282244478E+00
 cg2d: Sum(rhs),rhsMax =  -1.03864024936229E-07  8.34873757212784E+00
 cg2d: Sum(rhs),rhsMax =  -1.03873794898846E-07  8.34798443944571E+00
 cg2d: Sum(rhs),rhsMax =  -1.03881951929452E-07  8.34734205444848E+00
 cg2d: Sum(rhs),rhsMax =  -1.03888730507151E-07  8.34681927427749E+00
 cg2d: Sum(rhs),rhsMax =  -1.03893782466002E-07  8.34642479662444E+00
 cg2d: Sum(rhs),rhsMax =  -1.03896695691219E-07  8.34616690162161E+00
 cg2d: Sum(rhs),rhsMax =  -1.03898251779810E-07  8.34605328416144E+00
 cg2d: Sum(rhs),rhsMax =  -1.03897747294468E-07  8.34609086201575E+00
 cg2d: Sum(rhs),rhsMax =  -1.03895416714295E-07  8.34628560159372E+00
 cg2d: Sum(rhs),rhsMax =  -1.03891132141598E-07  8.34664238294981E+00
 cg2d: Sum(rhs),rhsMax =  -1.03884730151549E-07  8.34716488141953E+00
 cg2d: Sum(rhs),rhsMax =  -1.03876232060429E-07  8.34785544920597E+00
 cg2d: Sum(rhs),rhsMax =  -1.03865339440290E-07  8.34871504733891E+00
 cg2d: Sum(rhs),rhsMax =  -1.03852393351644E-07  8.34974320296400E+00
 cg2d: Sum(rhs),rhsMax =  -1.03837578535604E-07  8.35093803633076E+00
 cg2d: Sum(rhs),rhsMax =  -1.03820866570459E-07  8.35229628921908E+00
 cg2d: Sum(rhs),rhsMax =  -1.03801575335183E-07  8.35381348895399E+00
 cg2d: Sum(rhs),rhsMax =  -1.03780770643880E-07  8.35548405560547E+00
 cg2d: Sum(rhs),rhsMax =  -1.03758168279455E-07  8.35730145035772E+00
 cg2d: Sum(rhs),rhsMax =  -1.03734052459004E-07  8.35925834161856E+00
 cg2d: Sum(rhs),rhsMax =  -1.03707641585515E-07  8.36134677020027E+00
 cg2d: Sum(rhs),rhsMax =  -1.03680264373907E-07  8.36355833544679E+00
 EXTERNAL_FIELDS_LOAD, it=   3600630 : Reading new data, i0,i1=   11   12 (prev=   10   11 )
 DIC_FIELDS_LOAD, it=   3600630 : Reading new data, i0,i1=   11   12 (prev=   10   11 )
 cg2d: Sum(rhs),rhsMax =  -1.03651167648877E-07  8.36588437297216E+00
 cg2d: Sum(rhs),rhsMax =  -1.03620983793462E-07  8.36829873825493E+00
 cg2d: Sum(rhs),rhsMax =  -1.03590167555012E-07  8.37078098256463E+00
 cg2d: Sum(rhs),rhsMax =  -1.03558832620365E-07  8.37331076990736E+00
 cg2d: Sum(rhs),rhsMax =  -1.03526986094948E-07  8.37586828475342E+00
 cg2d: Sum(rhs),rhsMax =  -1.03494969039275E-07  8.37843651347270E+00
 cg2d: Sum(rhs),rhsMax =  -1.03462959089029E-07  8.38100058596186E+00
 cg2d: Sum(rhs),rhsMax =  -1.03431759157502E-07  8.38354800119352E+00
 cg2d: Sum(rhs),rhsMax =  -1.03400431328282E-07  8.38606907281455E+00
 cg2d: Sum(rhs),rhsMax =  -1.03369536930131E-07  8.38855705740912E+00
 cg2d: Sum(rhs),rhsMax =  -1.03339182544460E-07  8.39100818777902E+00
 cg2d: Sum(rhs),rhsMax =  -1.03309091059600E-07  8.39342162927294E+00
 cg2d: Sum(rhs),rhsMax =  -1.03279326424399E-07  8.39579937673915E+00
 cg2d: Sum(rhs),rhsMax =  -1.03250158645096E-07  8.39814606298476E+00
 cg2d: Sum(rhs),rhsMax =  -1.03221587721691E-07  8.40046867037939E+00
 cg2d: Sum(rhs),rhsMax =  -1.03192640210636E-07  8.40277617859981E+00
 cg2d: Sum(rhs),rhsMax =  -1.03164317977189E-07  8.40507915533000E+00
 cg2d: Sum(rhs),rhsMax =  -1.03135583628955E-07  8.40738929078001E+00
 cg2d: Sum(rhs),rhsMax =  -1.03106465587643E-07  8.40971893982490E+00
 cg2d: Sum(rhs),rhsMax =  -1.03077603341717E-07  8.41208069021930E+00
 cg2d: Sum(rhs),rhsMax =  -1.03047760546815E-07  8.41448664736628E+00
 cg2d: Sum(rhs),rhsMax =  -1.03017328001442E-07  8.41694808963461E+00
 cg2d: Sum(rhs),rhsMax =  -1.02985850958248E-07  8.41947641344255E+00
 cg2d: Sum(rhs),rhsMax =  -1.02953762848301E-07  8.42209465677943E+00
 cg2d: Sum(rhs),rhsMax =  -1.02920779454507E-07  8.42481840011152E+00
 cg2d: Sum(rhs),rhsMax =  -1.02885756803062E-07  8.42766143831664E+00
 cg2d: Sum(rhs),rhsMax =  -1.02849760708068E-07  8.43063562227923E+00
 cg2d: Sum(rhs),rhsMax =  -1.02811505087175E-07  8.43375048923612E+00
 cg2d: Sum(rhs),rhsMax =  -1.02771743115682E-07  8.43701312183894E+00
 cg2d: Sum(rhs),rhsMax =  -1.02730268736195E-07  8.44042805498092E+00
 cg2d: Sum(rhs),rhsMax =  -1.02686364300553E-07  8.44399728026233E+00
 cg2d: Sum(rhs),rhsMax =  -1.02641237731405E-07  8.44772028674299E+00
 cg2d: Sum(rhs),rhsMax =  -1.02594057693750E-07  8.45159419183708E+00
 cg2d: Sum(rhs),rhsMax =  -1.02545079982974E-07  8.45561389463918E+00
 cg2d: Sum(rhs),rhsMax =  -1.02494418285914E-07  8.45977229544668E+00
 cg2d: Sum(rhs),rhsMax =  -1.02442626825905E-07  8.46406043486096E+00
 cg2d: Sum(rhs),rhsMax =  -1.02389186906748E-07  8.46846786249842E+00
 cg2d: Sum(rhs),rhsMax =  -1.02334411167249E-07  8.47298294092153E+00
 cg2d: Sum(rhs),rhsMax =  -1.02278569613645E-07  8.47759310010859E+00
 cg2d: Sum(rhs),rhsMax =  -1.02221783038203E-07  8.48228511495217E+00
 cg2d: Sum(rhs),rhsMax =  -1.02164435134000E-07  8.48704540520819E+00
 cg2d: Sum(rhs),rhsMax =  -1.02106639587873E-07  8.49186038102640E+00
 cg2d: Sum(rhs),rhsMax =  -1.02048161920720E-07  8.49671683330553E+00
 cg2d: Sum(rhs),rhsMax =  -1.01989222400789E-07  8.50160229731839E+00
 cg2d: Sum(rhs),rhsMax =  -1.01930119456028E-07  8.50650541756349E+00
 cg2d: Sum(rhs),rhsMax =  -1.01871734159431E-07  8.51141606286167E+00
 cg2d: Sum(rhs),rhsMax =  -1.01813114383731E-07  8.51632550458549E+00
 cg2d: Sum(rhs),rhsMax =  -1.01754352499484E-07  8.52122658728227E+00
 cg2d: Sum(rhs),rhsMax =  -1.01695938781177E-07  8.52611387363114E+00
 cg2d: Sum(rhs),rhsMax =  -1.01637908755947E-07  8.53098375482528E+00
 cg2d: Sum(rhs),rhsMax =  -1.01580091893538E-07  8.53583450654913E+00
 cg2d: Sum(rhs),rhsMax =  -1.01522516615660E-07  8.54066629803099E+00
 cg2d: Sum(rhs),rhsMax =  -1.01465325030858E-07  8.54548114840508E+00
 cg2d: Sum(rhs),rhsMax =  -1.01408510033707E-07  8.55028281355603E+00
 cg2d: Sum(rhs),rhsMax =  -1.01351844250530E-07  8.55507663782142E+00
 cg2d: Sum(rhs),rhsMax =  -1.01294901355686E-07  8.55986938569464E+00
 cg2d: Sum(rhs),rhsMax =  -1.01238242677937E-07  8.56466907941720E+00
 cg2d: Sum(rhs),rhsMax =  -1.01181711897880E-07  8.56948481849350E+00
 cg2d: Sum(rhs),rhsMax =  -1.01124427942523E-07  8.57432655386490E+00
 cg2d: Sum(rhs),rhsMax =  -1.01066994773191E-07  8.57920482306538E+00
 EXTERNAL_FIELDS_LOAD, it=   3600690 : Reading new data, i0,i1=   12    1 (prev=   11   12 )
 DIC_FIELDS_LOAD, it=   3600690 : Reading new data, i0,i1=   12    1 (prev=   11   12 )
 cg2d: Sum(rhs),rhsMax =  -1.01009099751082E-07  8.58413045456863E+00
 cg2d: Sum(rhs),rhsMax =  -1.00950970249869E-07  8.58908772075261E+00
 cg2d: Sum(rhs),rhsMax =  -1.00892201260194E-07  8.59407113784658E+00
 cg2d: Sum(rhs),rhsMax =  -1.00833979388426E-07  8.59907533504329E+00
 cg2d: Sum(rhs),rhsMax =  -1.00775366718153E-07  8.60409527812640E+00
 cg2d: Sum(rhs),rhsMax =  -1.00716533779632E-07  8.60912639608676E+00
 cg2d: Sum(rhs),rhsMax =  -1.00657807422522E-07  8.61416467727663E+00
 cg2d: Sum(rhs),rhsMax =  -1.00599194752249E-07  8.61920670304104E+00
 cg2d: Sum(rhs),rhsMax =  -1.00540219705181E-07  8.62424959025954E+00
 cg2d: Sum(rhs),rhsMax =  -1.00481713616318E-07  8.62929084710763E+00
 cg2d: Sum(rhs),rhsMax =  -1.00423278581729E-07  8.63432823431656E+00
 cg2d: Sum(rhs),rhsMax =  -1.00365085131671E-07  8.63935967110789E+00
 cg2d: Sum(rhs),rhsMax =  -1.00306984052168E-07  8.64438326330631E+00
 cg2d: Sum(rhs),rhsMax =  -1.00248698231553E-07  8.64939736363611E+00
 cg2d: Sum(rhs),rhsMax =  -1.00191144269957E-07  8.65440069908248E+00
 cg2d: Sum(rhs),rhsMax =  -1.00133568992078E-07  8.65939260929048E+00
 cg2d: Sum(rhs),rhsMax =  -1.00076100295610E-07  8.66437312037654E+00
 cg2d: Sum(rhs),rhsMax =  -1.00019036608501E-07  8.66934290835576E+00
 cg2d: Sum(rhs),rhsMax =  -9.99617597585711E-08  8.67430225124478E+00
 cg2d: Sum(rhs),rhsMax =  -9.99047102823170E-08  8.67925494682890E+00
 cg2d: Sum(rhs),rhsMax =  -9.98482363456787E-08  8.68420608713978E+00
 cg2d: Sum(rhs),rhsMax =  -9.97913716105359E-08  8.68916081980566E+00
 cg2d: Sum(rhs),rhsMax =  -9.97343434505638E-08  8.69412416784580E+00
 cg2d: Sum(rhs),rhsMax =  -9.96773295014464E-08  8.69910085245627E+00
 cg2d: Sum(rhs),rhsMax =  -9.96202871306195E-08  8.70409517445086E+00
 cg2d: Sum(rhs),rhsMax =  -9.95629250155616E-08  8.70911095741398E+00
 cg2d: Sum(rhs),rhsMax =  -9.95059110664442E-08  8.71415148969223E+00
 cg2d: Sum(rhs),rhsMax =  -9.94480160443345E-08  8.71921930590513E+00
 cg2d: Sum(rhs),rhsMax =  -9.93902702361993E-08  8.72431607432102E+00
 cg2d: Sum(rhs),rhsMax =  -9.93317215147727E-08  8.72944261226047E+00
 cg2d: Sum(rhs),rhsMax =  -9.92735280647139E-08  8.73459893266904E+00
 cg2d: Sum(rhs),rhsMax =  -9.92147448641845E-08  8.73978430818157E+00
 cg2d: Sum(rhs),rhsMax =  -9.91560966667748E-08  8.74499735837366E+00
 cg2d: Sum(rhs),rhsMax =  -9.90966526615011E-08  8.75023614706347E+00
 cg2d: Sum(rhs),rhsMax =  -9.90366970654577E-08  8.75549829188909E+00
 cg2d: Sum(rhs),rhsMax =  -9.89772743764661E-08  8.76078107848702E+00
 cg2d: Sum(rhs),rhsMax =  -9.89177024735000E-08  8.76608155580086E+00
 cg2d: Sum(rhs),rhsMax =  -9.88579742511320E-08  8.77139664107964E+00
 cg2d: Sum(rhs),rhsMax =  -9.87977060162848E-08  8.77672320795606E+00
 cg2d: Sum(rhs),rhsMax =  -9.87382264838743E-08  8.78205816635757E+00
(PID.TID 0000.0001) Did not write pickup because writePickupAtEnd = FALSE
 DIC_SURFFORCING_INIT, it=   3600000 : Reading new data, i0,i1=   12    1
 QQ: pCO2 approximation method
 QQ first guess pH 8.2869849781645275,  7.129213793781922,  34.1535348423009,  2.0282,  5.43799999999999991E-4,  8.08490416966378689E-3,  2.3086000000000002
(PID.TID 0000.0001) // =======================================================
(PID.TID 0000.0001) // Model current state
(PID.TID 0000.0001) // =======================================================
(PID.TID 0000.0001) 
 EXTERNAL_FIELDS_LOAD, it=   3600000 : Reading new data, i0,i1=   12    1 (prev=   12    0 )
 DIC_FIELDS_LOAD, it=   3600000 : Reading new data, i0,i1=   12    1 (prev=   12    0 )
 cg2d: Sum(rhs),rhsMax =  -9.92433868418630E-08  8.73439671821315E+00
 cg2d: Sum(rhs),rhsMax =  -9.91844260056496E-08  8.73957958587058E+00
 cg2d: Sum(rhs),rhsMax =  -9.91252449011881E-08  8.74478969091806E+00
 cg2d: Sum(rhs),rhsMax =  -9.90665185440776E-08  8.75002495477880E+00
 cg2d: Sum(rhs),rhsMax =  -9.90068542705558E-08  8.75528284057604E+00
 cg2d: Sum(rhs),rhsMax =  -9.89473534218632E-08  8.76056047500076E+00
 cg2d: Sum(rhs),rhsMax =  -9.88878241514612E-08  8.76585475900637E+00
 cg2d: Sum(rhs),rhsMax =  -9.88279893476829E-08  8.77116249138180E+00
 cg2d: Sum(rhs),rhsMax =  -9.87682469144602E-08  8.77648047471154E+00
 cg2d: Sum(rhs),rhsMax =  -9.87087602766223E-08  8.78180560756084E+00
 cg2d: Sum(rhs),rhsMax =  -9.86489112619893E-08  8.78713494778165E+00
 cg2d: Sum(rhs),rhsMax =  -9.85891404070571E-08  8.79246575399440E+00
 cg2d: Sum(rhs),rhsMax =  -9.85293340249882E-08  8.79779549299699E+00
 cg2d: Sum(rhs),rhsMax =  -9.84700747608258E-08  8.80312181092759E+00
 cg2d: Sum(rhs),rhsMax =  -9.84108581292276E-08  8.80844249631459E+00
 cg2d: Sum(rhs),rhsMax =  -9.83516486030567E-08  8.81375547068360E+00
 cg2d: Sum(rhs),rhsMax =  -9.82926522397065E-08  8.81905885446822E+00
 cg2d: Sum(rhs),rhsMax =  -9.82337553523394E-08  8.82435106608147E+00
 cg2d: Sum(rhs),rhsMax =  -9.81751568929212E-08  8.82963093738125E+00
 cg2d: Sum(rhs),rhsMax =  -9.81166650149135E-08  8.83489782452132E+00
 cg2d: Sum(rhs),rhsMax =  -9.80585213028462E-08  8.84015168145881E+00
 cg2d: Sum(rhs),rhsMax =  -9.80007470730015E-08  8.84539306572338E+00
 cg2d: Sum(rhs),rhsMax =  -9.79429586323022E-08  8.85062306296846E+00
 cg2d: Sum(rhs),rhsMax =  -9.78853904598509E-08  8.85584316140559E+00
 cg2d: Sum(rhs),rhsMax =  -9.78280425556477E-08  8.86105508303604E+00
 cg2d: Sum(rhs),rhsMax =  -9.77709291305473E-08  8.86626061391844E+00
 cg2d: Sum(rhs),rhsMax =  -9.77132472712583E-08  8.87146147123075E+00
 cg2d: Sum(rhs),rhsMax =  -9.76563327981239E-08  8.87665923110881E+00
 cg2d: Sum(rhs),rhsMax =  -9.75990843699037E-08  8.88185530584736E+00
 cg2d: Sum(rhs),rhsMax =  -9.75420704207863E-08  8.88705095973601E+00
 EXTERNAL_FIELDS_LOAD, it=   3600030 : Reading new data, i0,i1=    1    2 (prev=   12    1 )
 DIC_FIELDS_LOAD, it=   3600030 : Reading new data, i0,i1=    1    2 (prev=   12    1 )
 cg2d: Sum(rhs),rhsMax =  -9.74853406887632E-08  8.89224735691429E+00
 cg2d: Sum(rhs),rhsMax =  -9.74287814869967E-08  8.89742706375180E+00
 cg2d: Sum(rhs),rhsMax =  -9.73723857100595E-08  8.90258000132907E+00
 cg2d: Sum(rhs),rhsMax =  -9.73164659967551E-08  8.90769672951691E+00
 cg2d: Sum(rhs),rhsMax =  -9.72612284044772E-08  8.91276878246959E+00
 cg2d: Sum(rhs),rhsMax =  -9.72070637317302E-08  8.91778889429735E+00
 cg2d: Sum(rhs),rhsMax =  -9.71530482729577E-08  8.92275113682099E+00
 cg2d: Sum(rhs),rhsMax =  -9.70993241367069E-08  8.92765100404361E+00
 cg2d: Sum(rhs),rhsMax =  -9.70471916161841E-08  8.93248545016401E+00
 cg2d: Sum(rhs),rhsMax =  -9.69955280538670E-08  8.93725287491615E+00
 cg2d: Sum(rhs),rhsMax =  -9.69441273923621E-08  8.94195305183593E+00
 cg2d: Sum(rhs),rhsMax =  -9.68941833434656E-08  8.94658701582531E+00
 cg2d: Sum(rhs),rhsMax =  -9.68450208915783E-08  8.95115692214719E+00
 cg2d: Sum(rhs),rhsMax =  -9.67962705544778E-08  8.95566589123099E+00
 cg2d: Sum(rhs),rhsMax =  -9.67482165492584E-08  8.96011786358850E+00
 cg2d: Sum(rhs),rhsMax =  -9.67008020325011E-08  8.96451747891563E+00
 cg2d: Sum(rhs),rhsMax =  -9.66539346336504E-08  8.96886998187158E+00
 cg2d: Sum(rhs),rhsMax =  -9.66078843589457E-08  8.97318115409823E+00
 cg2d: Sum(rhs),rhsMax =  -9.65621254067628E-08  8.97745726495199E+00
 cg2d: Sum(rhs),rhsMax =  -9.65159685506478E-08  8.98170502198163E+00
 cg2d: Sum(rhs),rhsMax =  -9.64709272466280E-08  8.98593151889555E+00
 cg2d: Sum(rhs),rhsMax =  -9.64258006774799E-08  8.99014423145949E+00
 cg2d: Sum(rhs),rhsMax =  -9.63806954246138E-08  8.99435085408351E+00
 cg2d: Sum(rhs),rhsMax =  -9.63354978011921E-08  8.99855914272681E+00
 cg2d: Sum(rhs),rhsMax =  -9.62904493917449E-08  9.00277662786875E+00
 cg2d: Sum(rhs),rhsMax =  -9.62449746566563E-08  9.00700998220796E+00
 cg2d: Sum(rhs),rhsMax =  -9.61997557169525E-08  9.01126574761483E+00
 cg2d: Sum(rhs),rhsMax =  -9.61540180810516E-08  9.01555039729210E+00
 cg2d: Sum(rhs),rhsMax =  -9.61077120109621E-08  9.01986971435378E+00
 cg2d: Sum(rhs),rhsMax =  -9.60613775191632E-08  9.02422880815445E+00
 cg2d: Sum(rhs),rhsMax =  -9.60143182737738E-08  9.02863205182447E+00
 cg2d: Sum(rhs),rhsMax =  -9.59668398081703E-08  9.03308295193821E+00
 cg2d: Sum(rhs),rhsMax =  -9.59189492277801E-08  9.03758400719746E+00
 cg2d: Sum(rhs),rhsMax =  -9.58706323217484E-08  9.04213663854453E+00
 cg2d: Sum(rhs),rhsMax =  -9.58215622404168E-08  9.04674109185253E+00
 cg2d: Sum(rhs),rhsMax =  -9.57721724148541E-08  9.05139640217902E+00
 cg2d: Sum(rhs),rhsMax =  -9.57223775799321E-08  9.05610040614876E+00
 cg2d: Sum(rhs),rhsMax =  -9.56718224642827E-08  9.06084979109159E+00
 cg2d: Sum(rhs),rhsMax =  -9.56211039238042E-08  9.06564017672268E+00
 cg2d: Sum(rhs),rhsMax =  -9.55700798499493E-08  9.07046622792088E+00
 cg2d: Sum(rhs),rhsMax =  -9.55189918272481E-08  9.07532179655311E+00
 cg2d: Sum(rhs),rhsMax =  -9.54672145780933E-08  9.08020008054443E+00
 cg2d: Sum(rhs),rhsMax =  -9.54156860188959E-08  9.08509379067778E+00
 cg2d: Sum(rhs),rhsMax =  -9.53640864054250E-08  9.08999532389517E+00
 cg2d: Sum(rhs),rhsMax =  -9.53120391500306E-08  9.09489685062687E+00
 cg2d: Sum(rhs),rhsMax =  -9.52604963799786E-08  9.09979078670731E+00
 cg2d: Sum(rhs),rhsMax =  -9.52091738781746E-08  9.10466952325132E+00
 cg2d: Sum(rhs),rhsMax =  -9.51581995423112E-08  9.10952586151125E+00
 cg2d: Sum(rhs),rhsMax =  -9.51075378452515E-08  9.11435305322486E+00
 cg2d: Sum(rhs),rhsMax =  -9.50568974644739E-08  9.11914489544444E+00
 cg2d: Sum(rhs),rhsMax =  -9.50070173644235E-08  9.12389583482653E+00
 cg2d: Sum(rhs),rhsMax =  -9.49582670273230E-08  9.12860106773695E+00
 cg2d: Sum(rhs),rhsMax =  -9.49094669522310E-08  9.13325671324743E+00
 cg2d: Sum(rhs),rhsMax =  -9.48612637330370E-08  9.13785989332165E+00
 cg2d: Sum(rhs),rhsMax =  -9.48139060596986E-08  9.14240888612431E+00
 cg2d: Sum(rhs),rhsMax =  -9.47671381368309E-08  9.14690322805975E+00
 cg2d: Sum(rhs),rhsMax =  -9.47210025969980E-08  9.15134376400067E+00
 cg2d: Sum(rhs),rhsMax =  -9.46753857533622E-08  9.15573262291172E+00
 cg2d: Sum(rhs),rhsMax =  -9.46305078741716E-08  9.16007311317651E+00
 cg2d: Sum(rhs),rhsMax =  -9.45855020972886E-08  9.16436954661381E+00
 EXTERNAL_FIELDS_LOAD, it=   3600090 : Reading new data, i0,i1=    2    3 (prev=    1    2 )
 DIC_FIELDS_LOAD, it=   3600090 : Reading new data, i0,i1=    2    3 (prev=    1    2 )
 cg2d: Sum(rhs),rhsMax =  -9.45416047670733E-08  9.16862700792054E+00
 cg2d: Sum(rhs),rhsMax =  -9.44977784911316E-08  9.17286965792043E+00
 cg2d: Sum(rhs),rhsMax =  -9.44538882663437E-08  9.17711460232796E+00
 cg2d: Sum(rhs),rhsMax =  -9.44097777733077E-08  9.18137827264839E+00
 cg2d: Sum(rhs),rhsMax =  -9.43655606988614E-08  9.18567586102450E+00
 cg2d: Sum(rhs),rhsMax =  -9.43208533499273E-08  9.19002086507332E+00
 cg2d: Sum(rhs),rhsMax =  -9.42755065125311E-08  9.19442473147613E+00
 cg2d: Sum(rhs),rhsMax =  -9.42294988703907E-08  9.19889660310093E+00
 cg2d: Sum(rhs),rhsMax =  -9.41831217460276E-08  9.20344317156002E+00
 cg2d: Sum(rhs),rhsMax =  -9.41357711781166E-08  9.20806863385625E+00
 cg2d: Sum(rhs),rhsMax =  -9.40875679589226E-08  9.21277472508850E+00
 cg2d: Sum(rhs),rhsMax =  -9.40387323566938E-08  9.21756082935263E+00
 cg2d: Sum(rhs),rhsMax =  -9.39891506845925E-08  9.22242415169496E+00
 cg2d: Sum(rhs),rhsMax =  -9.39387589937724E-08  9.22735992735964E+00
 cg2d: Sum(rhs),rhsMax =  -9.38874578082505E-08  9.23236166048178E+00
 cg2d: Sum(rhs),rhsMax =  -9.38360713576003E-08  9.23742136926884E+00
 cg2d: Sum(rhs),rhsMax =  -9.37847204340869E-08  9.24252982829311E+00
 cg2d: Sum(rhs),rhsMax =  -9.37326518624104E-08  9.24767682825910E+00
 cg2d: Sum(rhs),rhsMax =  -9.36799651185538E-08  9.25285135651627E+00
 cg2d: Sum(rhs),rhsMax =  -9.36278468088858E-08  9.25804181556396E+00
 cg2d: Sum(rhs),rhsMax =  -9.35753803332773E-08  9.26323624437734E+00
 cg2d: Sum(rhs),rhsMax =  -9.35233543941649E-08  9.26842252954541E+00
 cg2d: Sum(rhs),rhsMax =  -9.34712076627875E-08  9.27358855590945E+00
 cg2d: Sum(rhs),rhsMax =  -9.34198851609835E-08  9.27872221865362E+00
 cg2d: Sum(rhs),rhsMax =  -9.33687331894362E-08  9.28381269175841E+00
 cg2d: Sum(rhs),rhsMax =  -9.33183130769066E-08  9.28884990364347E+00
 cg2d: Sum(rhs),rhsMax =  -9.32684542931383E-08  9.29382460831193E+00
 cg2d: Sum(rhs),rhsMax =  -9.32194410552256E-08  9.29872876125425E+00
 cg2d: Sum(rhs),rhsMax =  -9.31711383600486E-08  9.30355578941157E+00
 cg2d: Sum(rhs),rhsMax =  -9.31240364820951E-08  9.30830071441787E+00
 cg2d: Sum(rhs),rhsMax =  -9.30773893514925E-08  9.31296016039586E+00
 cg2d: Sum(rhs),rhsMax =  -9.30318719838397E-08  9.31753230345820E+00
 cg2d: Sum(rhs),rhsMax =  -9.29872783217434E-08  9.32201677457960E+00
 cg2d: Sum(rhs),rhsMax =  -9.29437931063148E-08  9.32641453687162E+00
 cg2d: Sum(rhs),rhsMax =  -9.29007910599466E-08  9.33072777407330E+00
 cg2d: Sum(rhs),rhsMax =  -9.28590253579387E-08  9.33495977832897E+00
 cg2d: Sum(rhs),rhsMax =  -9.28177001924269E-08  9.33911483571782E+00
 cg2d: Sum(rhs),rhsMax =  -9.27770358316593E-08  9.34319809772528E+00
 cg2d: Sum(rhs),rhsMax =  -9.27373591252945E-08  9.34721542637213E+00
 cg2d: Sum(rhs),rhsMax =  -9.26982295368362E-08  9.35117321728378E+00
 cg2d: Sum(rhs),rhsMax =  -9.26594978523099E-08  9.35507820898651E+00
 cg2d: Sum(rhs),rhsMax =  -9.26212777585533E-08  9.35893728101038E+00
 cg2d: Sum(rhs),rhsMax =  -9.25836900478316E-08  9.36275724876052E+00
 cg2d: Sum(rhs),rhsMax =  -9.25467347201447E-08  9.36654466497940E+00
 cg2d: Sum(rhs),rhsMax =  -9.25093388559617E-08  9.37030563739009E+00
 cg2d: Sum(rhs),rhsMax =  -9.24723693174201E-08  9.37404566529748E+00
 cg2d: Sum(rhs),rhsMax =  -9.24358261045199E-08  9.37776950669782E+00
 cg2d: Sum(rhs),rhsMax =  -9.23998015878169E-08  9.38148107939576E+00
 cg2d: Sum(rhs),rhsMax =  -9.23633649563271E-08  9.38518340080342E+00
 cg2d: Sum(rhs),rhsMax =  -9.23271628039402E-08  9.38887856431341E+00
 cg2d: Sum(rhs),rhsMax =  -9.22907545941598E-08  9.39256775253961E+00
 cg2d: Sum(rhs),rhsMax =  -9.22549361348501E-08  9.39625127829926E+00
 cg2d: Sum(rhs),rhsMax =  -9.22186487173349E-08  9.39992865313115E+00
 cg2d: Sum(rhs),rhsMax =  -9.21831713185384E-08  9.40359867110262E+00
 cg2d: Sum(rhs),rhsMax =  -9.21473457538013E-08  9.40725949891390E+00
 cg2d: Sum(rhs),rhsMax =  -9.21119038821416E-08  9.41090875978471E+00
 cg2d: Sum(rhs),rhsMax =  -9.20763412182168E-08  9.41454361858659E+00
 cg2d: Sum(rhs),rhsMax =  -9.20410343496769E-08  9.41816086827301E+00
 cg2d: Sum(rhs),rhsMax =  -9.20060685416502E-08  9.42175701532902E+00
 cg2d: Sum(rhs),rhsMax =  -9.19711879987517E-08  9.42532836100955E+00
 EXTERNAL_FIELDS_LOAD, it=   3600150 : Reading new data, i0,i1=    3    4 (prev=    2    3 )
 DIC_FIELDS_LOAD, it=   3600150 : Reading new data, i0,i1=    3    4 (prev=    2    3 )
 cg2d: Sum(rhs),rhsMax =  -9.19367622032041E-08  9.42887108055882E+00
 cg2d: Sum(rhs),rhsMax =  -9.19030327395376E-08  9.43235832256638E+00
 cg2d: Sum(rhs),rhsMax =  -9.18696727580937E-08  9.43577294710938E+00
 cg2d: Sum(rhs),rhsMax =  -9.18375349101552E-08  9.43909901719340E+00
 cg2d: Sum(rhs),rhsMax =  -9.18056457521743E-08  9.44232226351574E+00
 cg2d: Sum(rhs),rhsMax =  -9.17754618967592E-08  9.44543045713848E+00
 cg2d: Sum(rhs),rhsMax =  -9.17468696570722E-08  9.44841368652191E+00
 cg2d: Sum(rhs),rhsMax =  -9.17188671678559E-08  9.45126453300903E+00
 cg2d: Sum(rhs),rhsMax =  -9.16929749905648E-08  9.45397814472091E+00
 cg2d: Sum(rhs),rhsMax =  -9.16680278351123E-08  9.45655223330268E+00
 cg2d: Sum(rhs),rhsMax =  -9.16445941356869E-08  9.45898700078271E+00
 cg2d: Sum(rhs),rhsMax =  -9.16223754643397E-08  9.46128500172268E+00
 cg2d: Sum(rhs),rhsMax =  -9.16011231311131E-08  9.46345095767279E+00
 cg2d: Sum(rhs),rhsMax =  -9.15811568802383E-08  9.46549153513779E+00
 cg2d: Sum(rhs),rhsMax =  -9.15625619768434E-08  9.46741508859273E+00
 cg2d: Sum(rhs),rhsMax =  -9.15451252581079E-08  9.46923137659912E+00
 cg2d: Sum(rhs),rhsMax =  -9.15285980340741E-08  9.47095124324780E+00
 cg2d: Sum(rhs),rhsMax =  -9.15126108225195E-08  9.47258633929544E+00
 cg2d: Sum(rhs),rhsMax =  -9.14974762622478E-08  9.47414881667898E+00
 cg2d: Sum(rhs),rhsMax =  -9.14831588261222E-08  9.47565102854520E+00
 cg2d: Sum(rhs),rhsMax =  -9.14691185016636E-08  9.47710524161440E+00
 cg2d: Sum(rhs),rhsMax =  -9.14552913400257E-08  9.47852337330871E+00
 cg2d: Sum(rhs),rhsMax =  -9.14417910280463E-08  9.47991675839448E+00
 cg2d: Sum(rhs),rhsMax =  -9.14288023068366E-08  9.48129594936036E+00
 cg2d: Sum(rhs),rhsMax =  -9.14153162057119E-08  9.48267055268677E+00
 cg2d: Sum(rhs),rhsMax =  -9.14016951014673E-08  9.48404910672501E+00
 cg2d: Sum(rhs),rhsMax =  -9.13883866360266E-08  9.48543898881096E+00
 cg2d: Sum(rhs),rhsMax =  -9.13749147457565E-08  9.48684634838855E+00
 cg2d: Sum(rhs),rhsMax =  -9.13611231112554E-08  9.48827608016959E+00
 cg2d: Sum(rhs),rhsMax =  -9.13465854068818E-08  9.48973182637241E+00
 cg2d: Sum(rhs),rhsMax =  -9.13324456064402E-08  9.49121598932757E+00
 cg2d: Sum(rhs),rhsMax =  -9.13176805283911E-08  9.49272976482376E+00
 cg2d: Sum(rhs),rhsMax =  -9.13029793991882E-08  9.49427318407705E+00
 cg2d: Sum(rhs),rhsMax =  -9.12876600978052E-08  9.49584517202971E+00
 cg2d: Sum(rhs),rhsMax =  -9.12722768475760E-08  9.49744362566448E+00
 cg2d: Sum(rhs),rhsMax =  -9.12563962174318E-08  9.49906550905340E+00
 cg2d: Sum(rhs),rhsMax =  -9.12406292741252E-08  9.50070696299551E+00
 cg2d: Sum(rhs),rhsMax =  -9.12245567974423E-08  9.50236342680402E+00
 cg2d: Sum(rhs),rhsMax =  -9.12086122184519E-08  9.50402976802920E+00
 cg2d: Sum(rhs),rhsMax =  -9.11920636781360E-08  9.50570042893596E+00
 cg2d: Sum(rhs),rhsMax =  -9.11760835720088E-08  9.50736956748404E+00
 cg2d: Sum(rhs),rhsMax =  -9.11599897790438E-08  9.50903122489705E+00
 cg2d: Sum(rhs),rhsMax =  -9.11439812512072E-08  9.51067944299842E+00
 cg2d: Sum(rhs),rhsMax =  -9.11286619498242E-08  9.51230836255520E+00
 cg2d: Sum(rhs),rhsMax =  -9.11128452685261E-08  9.51391232343393E+00
 cg2d: Sum(rhs),rhsMax =  -9.10978172896648E-08  9.51548598638282E+00
 cg2d: Sum(rhs),rhsMax =  -9.10825903588375E-08  9.51702443978652E+00
 cg2d: Sum(rhs),rhsMax =  -9.10679744947629E-08  9.51852327194360E+00
 cg2d: Sum(rhs),rhsMax =  -9.10538062726118E-08  9.51997861079381E+00
 cg2d: Sum(rhs),rhsMax =  -9.10403272769145E-08  9.52138713289450E+00
 cg2d: Sum(rhs),rhsMax =  -9.10271680254482E-08  9.52274605554116E+00
 cg2d: Sum(rhs),rhsMax =  -9.10143498344951E-08  9.52405313717331E+00
 cg2d: Sum(rhs),rhsMax =  -9.10022919242692E-08  9.52530666028232E+00
 cg2d: Sum(rhs),rhsMax =  -9.09905324419924E-08  9.52650541109617E+00
 cg2d: Sum(rhs),rhsMax =  -9.09794692915966E-08  9.52764864727963E+00
 cg2d: Sum(rhs),rhsMax =  -9.09689816808168E-08  9.52873605079492E+00
 cg2d: Sum(rhs),rhsMax =  -9.09588422359775E-08  9.52976767849440E+00
 cg2d: Sum(rhs),rhsMax =  -9.09493280687457E-08  9.53074391639987E+00
 cg2d: Sum(rhs),rhsMax =  -9.09404391791213E-08  9.53166530103624E+00
 cg2d: Sum(rhs),rhsMax =  -9.09316284491979E-08  9.53253252588939E+00
 EXTERNAL_FIELDS_LOAD, it=   3600210 : Reading new data, i0,i1=    4    5 (prev=    3    4 )
 DIC_FIELDS_LOAD, it=   3600210 : Reading new data, i0,i1=    4    5 (prev=    3    4 )
 cg2d: Sum(rhs),rhsMax =  -9.09236845814121E-08  9.53334634295211E+00
 cg2d: Sum(rhs),rhsMax =  -9.09162238826866E-08  9.53412016630968E+00
 cg2d: Sum(rhs),rhsMax =  -9.09088555545168E-08  9.53486144691540E+00
 cg2d: Sum(rhs),rhsMax =  -9.09020556605356E-08  9.53557668814411E+00
 cg2d: Sum(rhs),rhsMax =  -9.08950781308704E-08  9.53626990934916E+00
 cg2d: Sum(rhs),rhsMax =  -9.08885269268467E-08  9.53694479201801E+00
 cg2d: Sum(rhs),rhsMax =  -9.08819686173956E-08  9.53760402798875E+00
 cg2d: Sum(rhs),rhsMax =  -9.08758792661502E-08  9.53824943192211E+00
 cg2d: Sum(rhs),rhsMax =  -9.08692001644340E-08  9.53888215688552E+00
 cg2d: Sum(rhs),rhsMax =  -9.08633310814366E-08  9.53950304357000E+00
 cg2d: Sum(rhs),rhsMax =  -9.08575117364308E-08  9.54011304176576E+00
 cg2d: Sum(rhs),rhsMax =  -9.08516142317239E-08  9.54071301635899E+00
 cg2d: Sum(rhs),rhsMax =  -9.08458943627011E-08  9.54130322912294E+00
 cg2d: Sum(rhs),rhsMax =  -9.08400252797037E-08  9.54188272003942E+00
 cg2d: Sum(rhs),rhsMax =  -9.08349306882883E-08  9.54244934290944E+00
 cg2d: Sum(rhs),rhsMax =  -9.08295305634965E-08  9.54299999628384E+00
 cg2d: Sum(rhs),rhsMax =  -9.08241872821236E-08  9.54353092308816E+00
 cg2d: Sum(rhs),rhsMax =  -9.08189861092978E-08  9.54403796863502E+00
 cg2d: Sum(rhs),rhsMax =  -9.08142894218145E-08  9.54451678452915E+00
 cg2d: Sum(rhs),rhsMax =  -9.08097916862971E-08  9.54496303374895E+00
 cg2d: Sum(rhs),rhsMax =  -9.08056705384297E-08  9.54537256688658E+00
 cg2d: Sum(rhs),rhsMax =  -9.08016417611179E-08  9.54574155534994E+00
 cg2d: Sum(rhs),rhsMax =  -9.07979256226099E-08  9.54606657177462E+00
 cg2d: Sum(rhs),rhsMax =  -9.07952681927782E-08  9.54634467959792E+00
 cg2d: Sum(rhs),rhsMax =  -9.07924189164078E-08  9.54657345840157E+00
 cg2d: Sum(rhs),rhsMax =  -9.07902162339269E-08  9.54675102924543E+00
 cg2d: Sum(rhs),rhsMax =  -9.07886743561903E-08  9.54687605379506E+00
 cg2d: Sum(rhs),rhsMax =  -9.07877648614885E-08  9.54694771403842E+00
 cg2d: Sum(rhs),rhsMax =  -9.07869193156330E-08  9.54696566951997E+00
 cg2d: Sum(rhs),rhsMax =  -9.07865995714019E-08  9.54692999068711E+00
 cg2d: Sum(rhs),rhsMax =  -9.07872106381546E-08  9.54684108541375E+00
 cg2d: Sum(rhs),rhsMax =  -9.07884682987969E-08  9.54669963264824E+00
 cg2d: Sum(rhs),rhsMax =  -9.07898467517043E-08  9.54650651972953E+00
 cg2d: Sum(rhs),rhsMax =  -9.07915449488428E-08  9.54626274758502E+00
 cg2d: Sum(rhs),rhsMax =  -9.07941455352557E-08  9.54596935750525E+00
 cg2d: Sum(rhs),rhsMax =  -9.07970800767544E-08  9.54562738075971E+00
 cg2d: Sum(rhs),rhsMax =  -9.08000501453898E-08  9.54523778248193E+00
 cg2d: Sum(rhs),rhsMax =  -9.08038089164620E-08  9.54480140259877E+00
 cg2d: Sum(rhs),rhsMax =  -9.08078732209106E-08  9.54431888382345E+00
 cg2d: Sum(rhs),rhsMax =  -9.08128896526250E-08  9.54379063440704E+00
 cg2d: Sum(rhs),rhsMax =  -9.08179274006216E-08  9.54321682610369E+00
 cg2d: Sum(rhs),rhsMax =  -9.08231072571652E-08  9.54259741627488E+00
 cg2d: Sum(rhs),rhsMax =  -9.08294239820862E-08  9.54193218180504E+00
 cg2d: Sum(rhs),rhsMax =  -9.08357407070071E-08  9.54122075566689E+00
 cg2d: Sum(rhs),rhsMax =  -9.08426116552619E-08  9.54046266149910E+00
 cg2d: Sum(rhs),rhsMax =  -9.08497668206110E-08  9.53965734943055E+00
 cg2d: Sum(rhs),rhsMax =  -9.08576467395505E-08  9.53880424419014E+00
 cg2d: Sum(rhs),rhsMax =  -9.08659032461401E-08  9.53790282192021E+00
 cg2d: Sum(rhs),rhsMax =  -9.08746713434994E-08  9.53695268180845E+00
 cg2d: Sum(rhs),rhsMax =  -9.08840078750472E-08  9.53595362230667E+00
 cg2d: Sum(rhs),rhsMax =  -9.08936215182621E-08  9.53490571447803E+00
 cg2d: Sum(rhs),rhsMax =  -9.09042654484438E-08  9.53380930168364E+00
 cg2d: Sum(rhs),rhsMax =  -9.09145470018302E-08  9.53266493640869E+00
 cg2d: Sum(rhs),rhsMax =  -9.09259227910297E-08  9.53147332889492E+00
 cg2d: Sum(rhs),rhsMax =  -9.09384141323244E-08  9.53023537646442E+00
 cg2d: Sum(rhs),rhsMax =  -9.09505217805417E-08  9.52895220993865E+00
 cg2d: Sum(rhs),rhsMax =  -9.09629278567081E-08  9.52762520262973E+00
 cg2d: Sum(rhs),rhsMax =  -9.09757815747980E-08  9.52625594300855E+00
 cg2d: Sum(rhs),rhsMax =  -9.09892747813501E-08  9.52484621149773E+00
 cg2d: Sum(rhs),rhsMax =  -9.10029882561503E-08  9.52339794221070E+00
 EXTERNAL_FIELDS_LOAD, it=   3600270 : Reading new data, i0,i1=    5    6 (prev=    4    5 )
 DIC_FIELDS_LOAD, it=   3600270 : Reading new data, i0,i1=    5    6 (prev=    4    5 )
 cg2d: Sum(rhs),rhsMax =  -9.10169930534721E-08  9.52191318167782E+00
 cg2d: Sum(rhs),rhsMax =  -9.10311257484864E-08  9.52041761022813E+00
 cg2d: Sum(rhs),rhsMax =  -9.10455213443129E-08  9.51892843351038E+00
 cg2d: Sum(rhs),rhsMax =  -9.10593485059508E-08  9.51746258399289E+00
 cg2d: Sum(rhs),rhsMax =  -9.10729625047679E-08  9.51603636817957E+00
 cg2d: Sum(rhs),rhsMax =  -9.10860507019606E-08  9.51466517931999E+00
 cg2d: Sum(rhs),rhsMax =  -9.10986344138109E-08  9.51336322967766E+00
 cg2d: Sum(rhs),rhsMax =  -9.11102233658312E-08  9.51214329321166E+00
 cg2d: Sum(rhs),rhsMax =  -9.11212367782355E-08  9.51101645114812E+00
 cg2d: Sum(rhs),rhsMax =  -9.11308219997409E-08  9.50999185515969E+00
 cg2d: Sum(rhs),rhsMax =  -9.11397606273567E-08  9.50907652378690E+00
 cg2d: Sum(rhs),rhsMax =  -9.11473847509114E-08  9.50827517814543E+00
 cg2d: Sum(rhs),rhsMax =  -9.11540354309182E-08  9.50759014752173E+00
 cg2d: Sum(rhs),rhsMax =  -9.11595421371203E-08  9.50702134377118E+00
 cg2d: Sum(rhs),rhsMax =  -9.11640682943471E-08  9.50656629011210E+00
 cg2d: Sum(rhs),rhsMax =  -9.11673012637948E-08  9.50622019182364E+00
 cg2d: Sum(rhs),rhsMax =  -9.11696744765322E-08  9.50597606771963E+00
 cg2d: Sum(rhs),rhsMax =  -9.11708539774736E-08  9.50582494250500E+00
 cg2d: Sum(rhs),rhsMax =  -9.11716497853376E-08  9.50575608648473E+00
 cg2d: Sum(rhs),rhsMax =  -9.11714224116622E-08  9.50575729587021E+00
 cg2d: Sum(rhs),rhsMax =  -9.11708468720462E-08  9.50581523373235E+00
 cg2d: Sum(rhs),rhsMax =  -9.11699018502077E-08  9.50591575069248E+00
 cg2d: Sum(rhs),rhsMax =  -9.11685589244371E-08  9.50604420974297E+00
 cg2d: Sum(rhs),rhsMax =  -9.11669744141363E-08  9.50618583284504E+00
 cg2d: Sum(rhs),rhsMax =  -9.11656883317846E-08  9.50632606101357E+00
 cg2d: Sum(rhs),rhsMax =  -9.11643525114414E-08  9.50645090757042E+00
 cg2d: Sum(rhs),rhsMax =  -9.11635567035773E-08  9.50654729113363E+00
 cg2d: Sum(rhs),rhsMax =  -9.11632938027651E-08  9.50660334354173E+00
 cg2d: Sum(rhs),rhsMax =  -9.11633009081925E-08  9.50660868062301E+00
 cg2d: Sum(rhs),rhsMax =  -9.11639332912273E-08  9.50655462562515E+00
 cg2d: Sum(rhs),rhsMax =  -9.11649706836215E-08  9.50643436311089E+00
 cg2d: Sum(rhs),rhsMax =  -9.11672302095212E-08  9.50624304674150E+00
 cg2d: Sum(rhs),rhsMax =  -9.11696460548228E-08  9.50597781905916E+00
 cg2d: Sum(rhs),rhsMax =  -9.11727440211507E-08  9.50563777710892E+00
 cg2d: Sum(rhs),rhsMax =  -9.11770854372662E-08  9.50522393135291E+00
 cg2d: Sum(rhs),rhsMax =  -9.11816186999204E-08  9.50473911463816E+00
 cg2d: Sum(rhs),rhsMax =  -9.11870614572763E-08  9.50418773930678E+00
 cg2d: Sum(rhs),rhsMax =  -9.11928168534359E-08  9.50357558691374E+00
 cg2d: Sum(rhs),rhsMax =  -9.11992827923314E-08  9.50290964447458E+00
 cg2d: Sum(rhs),rhsMax =  -9.12065729608003E-08  9.50219791542795E+00
 cg2d: Sum(rhs),rhsMax =  -9.12139270781154E-08  9.50144918276843E+00
 cg2d: Sum(rhs),rhsMax =  -9.12212811954305E-08  9.50067274580360E+00
 cg2d: Sum(rhs),rhsMax =  -9.12293955934729E-08  9.49987815929010E+00
 cg2d: Sum(rhs),rhsMax =  -9.12369131356172E-08  9.49907498366882E+00
 cg2d: Sum(rhs),rhsMax =  -9.12447788437021E-08  9.49827255755378E+00
 cg2d: Sum(rhs),rhsMax =  -9.12528008711888E-08  9.49747978836020E+00
 cg2d: Sum(rhs),rhsMax =  -9.12602686753416E-08  9.49670496341604E+00
 cg2d: Sum(rhs),rhsMax =  -9.12679780640246E-08  9.49595558374171E+00
 cg2d: Sum(rhs),rhsMax =  -9.12747850634332E-08  9.49523821505845E+00
 cg2d: Sum(rhs),rhsMax =  -9.12811941589098E-08  9.49455836839740E+00
 cg2d: Sum(rhs),rhsMax =  -9.12878306280618E-08  9.49392042323925E+00
 cg2d: Sum(rhs),rhsMax =  -9.12937139219139E-08  9.49332754785973E+00
 cg2d: Sum(rhs),rhsMax =  -9.12992632606802E-08  9.49278165465699E+00
 cg2d: Sum(rhs),rhsMax =  -9.13035833605136E-08  9.49228339433203E+00
 cg2d: Sum(rhs),rhsMax =  -9.13086424247922E-08  9.49183218209292E+00
 cg2d: Sum(rhs),rhsMax =  -9.13127422563775E-08  9.49142625728328E+00
 cg2d: Sum(rhs),rhsMax =  -9.13163518134752E-08  9.49106276286301E+00
 cg2d: Sum(rhs),rhsMax =  -9.13194782015125E-08  9.49073783789306E+00
 cg2d: Sum(rhs),rhsMax =  -9.13225406407037E-08  9.49044672400271E+00
 cg2d: Sum(rhs),rhsMax =  -9.13253046519458E-08  9.49018390323782E+00
 EXTERNAL_FIELDS_LOAD, it=   3600330 : Reading new data, i0,i1=    6    7 (prev=    5    6 )
 DIC_FIELDS_LOAD, it=   3600330 : Reading new data, i0,i1=    6    7 (prev=    5    6 )
 cg2d: Sum(rhs),rhsMax =  -9.13276210212643E-08  9.48994325700856E+00
 cg2d: Sum(rhs),rhsMax =  -9.13303352945150E-08  9.48970801758053E+00
 cg2d: Sum(rhs),rhsMax =  -9.13328221940901E-08  9.48946471682098E+00
 cg2d: Sum(rhs),rhsMax =  -9.13353943587936E-08  9.48919980375378E+00
 cg2d: Sum(rhs),rhsMax =  -9.13383644274290E-08  9.48889996251626E+00
 cg2d: Sum(rhs),rhsMax =  -9.13418460868343E-08  9.48855235316500E+00
 cg2d: Sum(rhs),rhsMax =  -9.13461093432488E-08  9.48814487205053E+00
 cg2d: Sum(rhs),rhsMax =  -9.13508344524416E-08  9.48766639266868E+00
 cg2d: Sum(rhs),rhsMax =  -9.13563624749258E-08  9.48710698236420E+00
 cg2d: Sum(rhs),rhsMax =  -9.13624518261713E-08  9.48645808347463E+00
 cg2d: Sum(rhs),rhsMax =  -9.13698130489138E-08  9.48571268422533E+00
 cg2d: Sum(rhs),rhsMax =  -9.13783111400335E-08  9.48486545850383E+00
 cg2d: Sum(rhs),rhsMax =  -9.13876760932908E-08  9.48391285858374E+00
 cg2d: Sum(rhs),rhsMax =  -9.13977800109933E-08  9.48285315351105E+00
 cg2d: Sum(rhs),rhsMax =  -9.14093334358768E-08  9.48168641391458E+00
 cg2d: Sum(rhs),rhsMax =  -9.14215760872139E-08  9.48041445516485E+00
 cg2d: Sum(rhs),rhsMax =  -9.14348703418000E-08  9.47904073781749E+00
 cg2d: Sum(rhs),rhsMax =  -9.14490314585237E-08  9.47757022510765E+00
 cg2d: Sum(rhs),rhsMax =  -9.14641802296501E-08  9.47600920384239E+00
 cg2d: Sum(rhs),rhsMax =  -9.14802384954783E-08  9.47436507523804E+00
 cg2d: Sum(rhs),rhsMax =  -9.14970428311790E-08  9.47264612546539E+00
 cg2d: Sum(rhs),rhsMax =  -9.15143658630768E-08  9.47086128598380E+00
 cg2d: Sum(rhs),rhsMax =  -9.15317244221114E-08  9.46901988541289E+00
 cg2d: Sum(rhs),rhsMax =  -9.15503548526431E-08  9.46713139755286E+00
 cg2d: Sum(rhs),rhsMax =  -9.15688005420634E-08  9.46520519129246E+00
 cg2d: Sum(rhs),rhsMax =  -9.15879354579374E-08  9.46325027783096E+00
 cg2d: Sum(rhs),rhsMax =  -9.16070561629567E-08  9.46127510172983E+00
 cg2d: Sum(rhs),rhsMax =  -9.16269016215665E-08  9.45928736176468E+00
 cg2d: Sum(rhs),rhsMax =  -9.16458375854745E-08  9.45729384446051E+00
 cg2d: Sum(rhs),rhsMax =  -9.16652354021608E-08  9.45530032221759E+00
 cg2d: Sum(rhs),rhsMax =  -9.16847469056847E-08  9.45331147339530E+00
 cg2d: Sum(rhs),rhsMax =  -9.17041660386531E-08  9.45133082537812E+00
 cg2d: Sum(rhs),rhsMax =  -9.17234714847837E-08  9.44936073119909E+00
 cg2d: Sum(rhs),rhsMax =  -9.17423008672813E-08  9.44740238220463E+00
 cg2d: Sum(rhs),rhsMax =  -9.17614002560185E-08  9.44545585645758E+00
 cg2d: Sum(rhs),rhsMax =  -9.17801870059520E-08  9.44352020252140E+00
 cg2d: Sum(rhs),rhsMax =  -9.17989737558855E-08  9.44159355733174E+00
 cg2d: Sum(rhs),rhsMax =  -9.18179097197935E-08  9.43967327626014E+00
 cg2d: Sum(rhs),rhsMax =  -9.18367177860091E-08  9.43775607395104E+00
 cg2d: Sum(rhs),rhsMax =  -9.18552629514124E-08  9.43583817490269E+00
 cg2d: Sum(rhs),rhsMax =  -9.18742912858761E-08  9.43391546318717E+00
 cg2d: Sum(rhs),rhsMax =  -9.18933977800407E-08  9.43198362529795E+00
 cg2d: Sum(rhs),rhsMax =  -9.19123053222393E-08  9.43003828806143E+00
 cg2d: Sum(rhs),rhsMax =  -9.19319091963189E-08  9.42807514245689E+00
 cg2d: Sum(rhs),rhsMax =  -9.19516196518089E-08  9.42609005034801E+00
 cg2d: Sum(rhs),rhsMax =  -9.19711453661876E-08  9.42407914155286E+00
 cg2d: Sum(rhs),rhsMax =  -9.19916374186869E-08  9.42203890101561E+00
 cg2d: Sum(rhs),rhsMax =  -9.20122005254598E-08  9.41996625280574E+00
 cg2d: Sum(rhs),rhsMax =  -9.20328773190704E-08  9.41785862954787E+00
 cg2d: Sum(rhs),rhsMax =  -9.20541722848611E-08  9.41571402403211E+00
 cg2d: Sum(rhs),rhsMax =  -9.20761920042423E-08  9.41353104362712E+00
 cg2d: Sum(rhs),rhsMax =  -9.20975224971698E-08  9.41130897700722E+00
 cg2d: Sum(rhs),rhsMax =  -9.21202243375774E-08  9.40904782014454E+00
 cg2d: Sum(rhs),rhsMax =  -9.21427556477283E-08  9.40674826682519E+00
 cg2d: Sum(rhs),rhsMax =  -9.21658624974953E-08  9.40441167656376E+00
 cg2d: Sum(rhs),rhsMax =  -9.21897651551262E-08  9.40204003109270E+00
 cg2d: Sum(rhs),rhsMax =  -9.22136393910478E-08  9.39963588692061E+00
 cg2d: Sum(rhs),rhsMax =  -9.22377765277815E-08  9.39720232327049E+00
 cg2d: Sum(rhs),rhsMax =  -9.22617147125493E-08  9.39474287623570E+00
 cg2d: Sum(rhs),rhsMax =  -9.22866476571471E-08  9.39226147078604E+00
 EXTERNAL_FIELDS_LOAD, it=   3600390 : Reading new data, i0,i1=    7    8 (prev=    6    7 )
 DIC_FIELDS_LOAD, it=   3600390 : Reading new data, i0,i1=    7    8 (prev=    6    7 )
 cg2d: Sum(rhs),rhsMax =  -9.23120353490958E-08  9.38976233427929E+00
 cg2d: Sum(rhs),rhsMax =  -9.23369185557021E-08  9.38724381347799E+00
 cg2d: Sum(rhs),rhsMax =  -9.23620930848301E-08  9.38470550458213E+00
 cg2d: Sum(rhs),rhsMax =  -9.23878431535741E-08  9.38214640732935E+00
 cg2d: Sum(rhs),rhsMax =  -9.24133303215058E-08  9.37956498127073E+00
 cg2d: Sum(rhs),rhsMax =  -9.24395564538827E-08  9.37695924403383E+00
 cg2d: Sum(rhs),rhsMax =  -9.24659673273709E-08  9.37432689628576E+00
 cg2d: Sum(rhs),rhsMax =  -9.24926268908166E-08  9.37166545130188E+00
 cg2d: Sum(rhs),rhsMax =  -9.25199330481519E-08  9.36897236493602E+00
 cg2d: Sum(rhs),rhsMax =  -9.25472107837777E-08  9.36624514198210E+00
 cg2d: Sum(rhs),rhsMax =  -9.25749148450450E-08  9.36348144222541E+00
 cg2d: Sum(rhs),rhsMax =  -9.26027894365689E-08  9.36067916467522E+00
 cg2d: Sum(rhs),rhsMax =  -9.26316801042049E-08  9.35783651518778E+00
 cg2d: Sum(rhs),rhsMax =  -9.26604357687211E-08  9.35495205473915E+00
 cg2d: Sum(rhs),rhsMax =  -9.26899872411013E-08  9.35202472862356E+00
 cg2d: Sum(rhs),rhsMax =  -9.27198087197212E-08  9.34905386050751E+00
 cg2d: Sum(rhs),rhsMax =  -9.27502270542391E-08  9.34603912446753E+00
 cg2d: Sum(rhs),rhsMax =  -9.27809580275607E-08  9.34298052032945E+00
 cg2d: Sum(rhs),rhsMax =  -9.28122148025068E-08  9.33987837125357E+00
 cg2d: Sum(rhs),rhsMax =  -9.28438836922396E-08  9.33673332003228E+00
 cg2d: Sum(rhs),rhsMax =  -9.28756591633828E-08  9.33354631509102E+00
 cg2d: Sum(rhs),rhsMax =  -9.29085999246126E-08  9.33031856217985E+00
 cg2d: Sum(rhs),rhsMax =  -9.29414056827227E-08  9.32705144157814E+00
 cg2d: Sum(rhs),rhsMax =  -9.29742824951063E-08  9.32374640924821E+00
 cg2d: Sum(rhs),rhsMax =  -9.30079835370634E-08  9.32040491207867E+00
 cg2d: Sum(rhs),rhsMax =  -9.30417982658582E-08  9.31702830536998E+00
 cg2d: Sum(rhs),rhsMax =  -9.30764798567907E-08  9.31361778906816E+00
 cg2d: Sum(rhs),rhsMax =  -9.31104011669959E-08  9.31017435680010E+00
 cg2d: Sum(rhs),rhsMax =  -9.31454593455783E-08  9.30669874783390E+00
 cg2d: Sum(rhs),rhsMax =  -9.31809367443748E-08  9.30319140183628E+00
 cg2d: Sum(rhs),rhsMax =  -9.32159238686836E-08  9.29965242032067E+00
 cg2d: Sum(rhs),rhsMax =  -9.32518702256857E-08  9.29608155387300E+00
 cg2d: Sum(rhs),rhsMax =  -9.32883352788849E-08  9.29247816276956E+00
 cg2d: Sum(rhs),rhsMax =  -9.33245232204172E-08  9.28884120452690E+00
 cg2d: Sum(rhs),rhsMax =  -9.33613577558390E-08  9.28516924951164E+00
 cg2d: Sum(rhs),rhsMax =  -9.33982562401070E-08  9.28146051649491E+00
 cg2d: Sum(rhs),rhsMax =  -9.34364479121541E-08  9.27771291851975E+00
 cg2d: Sum(rhs),rhsMax =  -9.34740143065937E-08  9.27392411497484E+00
 cg2d: Sum(rhs),rhsMax =  -9.35126251988549E-08  9.27009157616147E+00
 cg2d: Sum(rhs),rhsMax =  -9.35518329470142E-08  9.26621266064052E+00
 cg2d: Sum(rhs),rhsMax =  -9.35912964905583E-08  9.26228469753356E+00
 cg2d: Sum(rhs),rhsMax =  -9.36311082000429E-08  9.25830502540661E+00
 cg2d: Sum(rhs),rhsMax =  -9.36718080879473E-08  9.25427104022615E+00
 cg2d: Sum(rhs),rhsMax =  -9.37130835154676E-08  9.25018025806528E+00
 cg2d: Sum(rhs),rhsMax =  -9.37547639523473E-08  9.24603037476154E+00
 cg2d: Sum(rhs),rhsMax =  -9.37974888870485E-08  9.24181932462259E+00
 cg2d: Sum(rhs),rhsMax =  -9.38402919814507E-08  9.23754533703139E+00
 cg2d: Sum(rhs),rhsMax =  -9.38843172093584E-08  9.23320698439808E+00
 cg2d: Sum(rhs),rhsMax =  -9.39290814017113E-08  9.22880321317793E+00
 cg2d: Sum(rhs),rhsMax =  -9.39739734917566E-08  9.22433335164241E+00
 cg2d: Sum(rhs),rhsMax =  -9.40200521881707E-08  9.21979710173837E+00
 cg2d: Sum(rhs),rhsMax =  -9.40667135296280E-08  9.21519452384442E+00
 cg2d: Sum(rhs),rhsMax =  -9.41140712029664E-08  9.21052602027441E+00
 cg2d: Sum(rhs),rhsMax =  -9.41621181027585E-08  9.20579231856880E+00
 cg2d: Sum(rhs),rhsMax =  -9.42108115964402E-08  9.20099445172383E+00
 cg2d: Sum(rhs),rhsMax =  -9.42603506359774E-08  9.19613373409314E+00
 cg2d: Sum(rhs),rhsMax =  -9.43106570616692E-08  9.19121172891709E+00
 cg2d: Sum(rhs),rhsMax =  -9.43619582471911E-08  9.18623021276131E+00
 cg2d: Sum(rhs),rhsMax =  -9.44129254776271E-08  9.18119115032627E+00
 cg2d: Sum(rhs),rhsMax =  -9.44648874678933E-08  9.17609666859133E+00
 EXTERNAL_FIELDS_LOAD, it=   3600450 : Reading new data, i0,i1=    8    9 (prev=    7    8 )
 DIC_FIELDS_LOAD, it=   3600450 : Reading new data, i0,i1=    8    9 (prev=    7    8 )
 cg2d: Sum(rhs),rhsMax =  -9.45180929079470E-08  9.17094900539886E+00
 cg2d: Sum(rhs),rhsMax =  -9.45713196642828E-08  9.16576037761048E+00
 cg2d: Sum(rhs),rhsMax =  -9.46249869571147E-08  9.16053907873528E+00
 cg2d: Sum(rhs),rhsMax =  -9.46787679367844E-08  9.15529303788953E+00
 cg2d: Sum(rhs),rhsMax =  -9.47327123412833E-08  9.15002961005962E+00
 cg2d: Sum(rhs),rhsMax =  -9.47873814993727E-08  9.14475542293395E+00
 cg2d: Sum(rhs),rhsMax =  -9.48415888046839E-08  9.13947626776025E+00
 cg2d: Sum(rhs),rhsMax =  -9.48963148061921E-08  9.13419703804716E+00
 cg2d: Sum(rhs),rhsMax =  -9.49505718494947E-08  9.12892171232682E+00
 cg2d: Sum(rhs),rhsMax =  -9.50055820680973E-08  9.12365335338700E+00
 cg2d: Sum(rhs),rhsMax =  -9.50602441207593E-08  9.11839411243203E+00
 cg2d: Sum(rhs),rhsMax =  -9.51149274897034E-08  9.11314523538299E+00
 cg2d: Sum(rhs),rhsMax =  -9.51689713701853E-08  9.10790707134369E+00
 cg2d: Sum(rhs),rhsMax =  -9.52241663298992E-08  9.10267908920085E+00
 cg2d: Sum(rhs),rhsMax =  -9.52785583763216E-08  9.09745990818067E+00
 cg2d: Sum(rhs),rhsMax =  -9.53332346398383E-08  9.09224734512777E+00
 cg2d: Sum(rhs),rhsMax =  -9.53879322196372E-08  9.08703847736888E+00
 cg2d: Sum(rhs),rhsMax =  -9.54423811094784E-08  9.08182972075513E+00
 cg2d: Sum(rhs),rhsMax =  -9.54974623823546E-08  9.07661692347198E+00
 cg2d: Sum(rhs),rhsMax =  -9.55527141854873E-08  9.07139547821490E+00
 cg2d: Sum(rhs),rhsMax =  -9.56078878289190E-08  9.06616045270155E+00
 cg2d: Sum(rhs),rhsMax =  -9.56632462134621E-08  9.06090673305150E+00
 cg2d: Sum(rhs),rhsMax =  -9.57190593453561E-08  9.05562917574046E+00
 cg2d: Sum(rhs),rhsMax =  -9.57753982788745E-08  9.05032276301453E+00
 cg2d: Sum(rhs),rhsMax =  -9.58323127520089E-08  9.04498274779792E+00
 cg2d: Sum(rhs),rhsMax =  -9.58890566948867E-08  9.03960479010611E+00
 cg2d: Sum(rhs),rhsMax =  -9.59469090844323E-08  9.03418508103277E+00
 cg2d: Sum(rhs),rhsMax =  -9.60046975251316E-08  9.02872044807494E+00
 cg2d: Sum(rhs),rhsMax =  -9.60634949365158E-08  9.02320843719522E+00
 cg2d: Sum(rhs),rhsMax =  -9.61234505325592E-08  9.01764736350553E+00
 cg2d: Sum(rhs),rhsMax =  -9.61829158541150E-08  9.01203632711249E+00
 cg2d: Sum(rhs),rhsMax =  -9.62436175200310E-08  9.00637519234014E+00
 cg2d: Sum(rhs),rhsMax =  -9.63047241953063E-08  9.00066454100738E+00
 cg2d: Sum(rhs),rhsMax =  -9.63663566722062E-08  8.99490560644289E+00
 cg2d: Sum(rhs),rhsMax =  -9.64286215321408E-08  8.98910019830229E+00
 cg2d: Sum(rhs),rhsMax =  -9.64914832479735E-08  8.98325060608421E+00
 cg2d: Sum(rhs),rhsMax =  -9.65549631359863E-08  8.97735949860674E+00
 cg2d: Sum(rhs),rhsMax =  -9.66191180395981E-08  8.97142982445055E+00
 cg2d: Sum(rhs),rhsMax =  -9.66832942594920E-08  8.96546471599943E+00
 cg2d: Sum(rhs),rhsMax =  -9.67482520763951E-08  8.95946740124540E+00
 cg2d: Sum(rhs),rhsMax =  -9.68132098932983E-08  8.95344112713886E+00
 cg2d: Sum(rhs),rhsMax =  -9.68790274669118E-08  8.94738909112794E+00
 cg2d: Sum(rhs),rhsMax =  -9.69447810916790E-08  8.94131438207753E+00
 cg2d: Sum(rhs),rhsMax =  -9.70111884157632E-08  8.93521991327319E+00
 cg2d: Sum(rhs),rhsMax =  -9.70773115227530E-08  8.92910833888471E+00
 cg2d: Sum(rhs),rhsMax =  -9.71445075492738E-08  8.92298199747039E+00
 cg2d: Sum(rhs),rhsMax =  -9.72113554098541E-08  8.91684290726808E+00
 cg2d: Sum(rhs),rhsMax =  -9.72787574937684E-08  8.91069264633776E+00
 cg2d: Sum(rhs),rhsMax =  -9.73459535202892E-08  8.90453228797114E+00
 cg2d: Sum(rhs),rhsMax =  -9.74135971887335E-08  8.89836249714105E+00
 cg2d: Sum(rhs),rhsMax =  -9.74817027099562E-08  8.89218368115518E+00
 cg2d: Sum(rhs),rhsMax =  -9.75496519117769E-08  8.88599608996445E+00
 cg2d: Sum(rhs),rhsMax =  -9.76179350686834E-08  8.87979980032782E+00
 cg2d: Sum(rhs),rhsMax =  -9.76860476953334E-08  8.87359466021019E+00
 cg2d: Sum(rhs),rhsMax =  -9.77549490244201E-08  8.86737992136571E+00
 cg2d: Sum(rhs),rhsMax =  -9.78237792992331E-08  8.86115449881272E+00
 cg2d: Sum(rhs),rhsMax =  -9.78925882577641E-08  8.85491714939279E+00
 cg2d: Sum(rhs),rhsMax =  -9.79620651264668E-08  8.84866650814923E+00
 cg2d: Sum(rhs),rhsMax =  -9.80318830556826E-08  8.84239908862083E+00
 cg2d: Sum(rhs),rhsMax =  -9.81016583523342E-08  8.83611205511795E+00
 EXTERNAL_FIELDS_LOAD, it=   3600510 : Reading new data, i0,i1=    9   10 (prev=    8    9 )
 DIC_FIELDS_LOAD, it=   3600510 : Reading new data, i0,i1=    9   10 (prev=    8    9 )
 cg2d: Sum(rhs),rhsMax =  -9.81721868242857E-08  8.82980306034887E+00
 cg2d: Sum(rhs),rhsMax =  -9.82427721396562E-08  8.82347164349139E+00
 cg2d: Sum(rhs),rhsMax =  -9.83135990395567E-08  8.81711735596894E+00
 cg2d: Sum(rhs),rhsMax =  -9.83851720093298E-08  8.81074020360017E+00
 cg2d: Sum(rhs),rhsMax =  -9.84564962891454E-08  8.80434063629974E+00
 cg2d: Sum(rhs),rhsMax =  -9.85286376931072E-08  8.79791959804717E+00
 cg2d: Sum(rhs),rhsMax =  -9.86011414738641E-08  8.79147850051498E+00
 cg2d: Sum(rhs),rhsMax =  -9.86734960406466E-08  8.78501923806664E+00
 cg2d: Sum(rhs),rhsMax =  -9.87464900958912E-08  8.77854412431977E+00
 cg2d: Sum(rhs),rhsMax =  -9.88197470519481E-08  8.77205585109022E+00
 cg2d: Sum(rhs),rhsMax =  -9.88934729662105E-08  8.76555740298602E+00
 cg2d: Sum(rhs),rhsMax =  -9.89669146633787E-08  8.75905198910442E+00
 cg2d: Sum(rhs),rhsMax =  -9.90407258427695E-08  8.75254295465281E+00
 cg2d: Sum(rhs),rhsMax =  -9.91145014950234E-08  8.74603368964057E+00
 cg2d: Sum(rhs),rhsMax =  -9.91886466295000E-08  8.73952755244439E+00
 cg2d: Sum(rhs),rhsMax =  -9.92623157003436E-08  8.73302782624689E+00
 cg2d: Sum(rhs),rhsMax =  -9.93363400425551E-08  8.72653766294564E+00
 cg2d: Sum(rhs),rhsMax =  -9.94104141227581E-08  8.72006002219781E+00
 cg2d: Sum(rhs),rhsMax =  -9.94844668866790E-08  8.71359759621992E+00
 cg2d: Sum(rhs),rhsMax =  -9.95583775420528E-08  8.70715278372291E+00
 cg2d: Sum(rhs),rhsMax =  -9.96322597757171E-08  8.70072771032166E+00
 cg2d: Sum(rhs),rhsMax =  -9.97059714791249E-08  8.69432422374462E+00
 cg2d: Sum(rhs),rhsMax =  -9.97792923840279E-08  8.68794392220557E+00
 cg2d: Sum(rhs),rhsMax =  -9.98527127649140E-08  8.68159287495532E+00
 cg2d: Sum(rhs),rhsMax =  -9.99256144496030E-08  8.67527594836007E+00
 cg2d: Sum(rhs),rhsMax =  -9.99983740257449E-08  8.66899648662334E+00
 cg2d: Sum(rhs),rhsMax =  -1.00070764119664E-07  8.66275674813775E+00
 cg2d: Sum(rhs),rhsMax =  -1.00142791836788E-07  8.65655808426570E+00
 cg2d: Sum(rhs),rhsMax =  -1.00214123222031E-07  8.65040095427649E+00
 cg2d: Sum(rhs),rhsMax =  -1.00285419080137E-07  8.64428511771589E+00
 cg2d: Sum(rhs),rhsMax =  -1.00356203347474E-07  8.63820779072895E+00
 cg2d: Sum(rhs),rhsMax =  -1.00426881033400E-07  8.63216610266613E+00
 cg2d: Sum(rhs),rhsMax =  -1.00497182131676E-07  8.62615664857018E+00
 cg2d: Sum(rhs),rhsMax =  -1.00566929006618E-07  8.62017549344574E+00
 cg2d: Sum(rhs),rhsMax =  -1.00636839306389E-07  8.61421824973427E+00
 cg2d: Sum(rhs),rhsMax =  -1.00706515127058E-07  8.60828014305759E+00
 cg2d: Sum(rhs),rhsMax =  -1.00776318845419E-07  8.60235619466164E+00
 cg2d: Sum(rhs),rhsMax =  -1.00845916506387E-07  8.59644141396147E+00
 cg2d: Sum(rhs),rhsMax =  -1.00915485745645E-07  8.59053104903554E+00
 cg2d: Sum(rhs),rhsMax =  -1.00985261042297E-07  8.58462072248315E+00
 cg2d: Sum(rhs),rhsMax =  -1.01055491086299E-07  8.57870663714626E+00
 cg2d: Sum(rhs),rhsMax =  -1.01125422702353E-07  8.57278566865890E+00
 cg2d: Sum(rhs),rhsMax =  -1.01195716695202E-07  8.56685532083521E+00
 cg2d: Sum(rhs),rhsMax =  -1.01266216745444E-07  8.56091374139585E+00
 cg2d: Sum(rhs),rhsMax =  -1.01337192859319E-07  8.55495975914983E+00
 cg2d: Sum(rhs),rhsMax =  -1.01408346608878E-07  8.54899275863313E+00
 cg2d: Sum(rhs),rhsMax =  -1.01479535885574E-07  8.54301265247851E+00
 cg2d: Sum(rhs),rhsMax =  -1.01551435705005E-07  8.53701978569626E+00
 cg2d: Sum(rhs),rhsMax =  -1.01622724457684E-07  8.53101490472480E+00
 cg2d: Sum(rhs),rhsMax =  -1.01695292187287E-07  8.52499919193590E+00
 cg2d: Sum(rhs),rhsMax =  -1.01767554383514E-07  8.51897431341724E+00
 cg2d: Sum(rhs),rhsMax =  -1.01840242905382E-07  8.51294235247767E+00
 cg2d: Sum(rhs),rhsMax =  -1.01912846162122E-07  8.50690569200869E+00
 cg2d: Sum(rhs),rhsMax =  -1.01985413891725E-07  8.50087005576702E+00
 cg2d: Sum(rhs),rhsMax =  -1.02058450579534E-07  8.49484015017416E+00
 cg2d: Sum(rhs),rhsMax =  -1.02131188839394E-07  8.48882063673028E+00
 cg2d: Sum(rhs),rhsMax =  -1.02203856044980E-07  8.48281607441673E+00
 cg2d: Sum(rhs),rhsMax =  -1.02276672464541E-07  8.47683086082370E+00
 cg2d: Sum(rhs),rhsMax =  -1.02349595465512E-07  8.47086915096995E+00
 cg2d: Sum(rhs),rhsMax =  -1.02421360281824E-07  8.46493476809303E+00
 EXTERNAL_FIELDS_LOAD, it=   3600570 : Reading new data, i0,i1=   10   11 (prev=    9   10 )
 DIC_FIELDS_LOAD, it=   3600570 : Reading new data, i0,i1=   10   11 (prev=    9   10 )
 cg2d: Sum(rhs),rhsMax =  -1.02493515896640E-07  8.45903109783263E+00
 cg2d: Sum(rhs),rhsMax =  -1.02564975179575E-07  8.45319648993583E+00
 cg2d: Sum(rhs),rhsMax =  -1.02634501786270E-07  8.44745634270964E+00
 cg2d: Sum(rhs),rhsMax =  -1.02703893389844E-07  8.44183524325516E+00
 cg2d: Sum(rhs),rhsMax =  -1.02770819410125E-07  8.43635626330932E+00
 cg2d: Sum(rhs),rhsMax =  -1.02836231974379E-07  8.43104036727980E+00
 cg2d: Sum(rhs),rhsMax =  -1.02899214482477E-07  8.42590597581903E+00
 cg2d: Sum(rhs),rhsMax =  -1.02960150627496E-07  8.42096861540595E+00
 cg2d: Sum(rhs),rhsMax =  -1.03018727770632E-07  8.41624063283881E+00
 cg2d: Sum(rhs),rhsMax =  -1.03074462742825E-07  8.41173099284368E+00
 cg2d: Sum(rhs),rhsMax =  -1.03127582917750E-07  8.40744522364360E+00
 cg2d: Sum(rhs),rhsMax =  -1.03177704602331E-07  8.40338548638234E+00
 cg2d: Sum(rhs),rhsMax =  -1.03225289649345E-07  8.39955071057647E+00
 cg2d: Sum(rhs),rhsMax =  -1.03270444640202E-07  8.39593686353065E+00
 cg2d: Sum(rhs),rhsMax =  -1.03312800092681E-07  8.39253726007720E+00
 cg2d: Sum(rhs),rhsMax =  -1.03352554958747E-07  8.38934286490718E+00
 cg2d: Sum(rhs),rhsMax =  -1.03389886874083E-07  8.38634267692018E+00
 cg2d: Sum(rhs),rhsMax =  -1.03425186637196E-07  8.38352418466840E+00
 cg2d: Sum(rhs),rhsMax =  -1.03458575040349E-07  8.38087384792736E+00
 cg2d: Sum(rhs),rhsMax =  -1.03489654179612E-07  8.37837764295235E+00
 cg2d: Sum(rhs),rhsMax =  -1.03519347760539E-07  8.37602165023152E+00
 cg2d: Sum(rhs),rhsMax =  -1.03547364460610E-07  8.37379265495454E+00
 cg2d: Sum(rhs),rhsMax =  -1.03573896126363E-07  8.37167859305842E+00
 cg2d: Sum(rhs),rhsMax =  -1.03599155920620E-07  8.36966841617237E+00
 cg2d: Sum(rhs),rhsMax =  -1.03623357006200E-07  8.36775262363169E+00
 cg2d: Sum(rhs),rhsMax =  -1.03646584648232E-07  8.36592322530019E+00
 cg2d: Sum(rhs),rhsMax =  -1.03668426731929E-07  8.36417370361670E+00
 cg2d: Sum(rhs),rhsMax =  -1.03689806962848E-07  8.36249893566327E+00
 cg2d: Sum(rhs),rhsMax =  -1.03710164012227E-07  8.36089512198643E+00
 cg2d: Sum(rhs),rhsMax =  -1.03729064448999E-07  8.35935972193128E+00
 cg2d: Sum(rhs),rhsMax =  -1.03747986202052E-07  8.35789132052859E+00
 cg2d: Sum(rhs),rhsMax =  -1.03765373182796E-07  8.35648953984663E+00
 cg2d: Sum(rhs),rhsMax =  -1.03782369365035E-07  8.35515503666620E+00
 cg2d: Sum(rhs),rhsMax =  -1.03798733164240E-07  8.35388959337713E+00
 cg2d: Sum(rhs),rhsMax =  -1.03813491136862E-07  8.35269612989214E+00
 cg2d: Sum(rhs),rhsMax =  -1.03827638042731E-07  8.35157865319166E+00
 cg2d: Sum(rhs),rhsMax =  -1.03841280463257E-07  8.35054220321588E+00
 cg2d: Sum(rhs),rhsMax =  -1.03853331268056E-07  8.34959282244478E+00
 cg2d: Sum(rhs),rhsMax =  -1.03864024936229E-07  8.34873757212784E+00
 cg2d: Sum(rhs),rhsMax =  -1.03873794898846E-07  8.34798443944571E+00
 cg2d: Sum(rhs),rhsMax =  -1.03881951929452E-07  8.34734205444848E+00
 cg2d: Sum(rhs),rhsMax =  -1.03888730507151E-07  8.34681927427749E+00
 cg2d: Sum(rhs),rhsMax =  -1.03893782466002E-07  8.34642479662444E+00
 cg2d: Sum(rhs),rhsMax =  -1.03896695691219E-07  8.34616690162161E+00
 cg2d: Sum(rhs),rhsMax =  -1.03898251779810E-07  8.34605328416144E+00
 cg2d: Sum(rhs),rhsMax =  -1.03897747294468E-07  8.34609086201575E+00
 cg2d: Sum(rhs),rhsMax =  -1.03895416714295E-07  8.34628560159372E+00
 cg2d: Sum(rhs),rhsMax =  -1.03891132141598E-07  8.34664238294981E+00
 cg2d: Sum(rhs),rhsMax =  -1.03884730151549E-07  8.34716488141953E+00
 cg2d: Sum(rhs),rhsMax =  -1.03876232060429E-07  8.34785544920597E+00
 cg2d: Sum(rhs),rhsMax =  -1.03865339440290E-07  8.34871504733891E+00
 cg2d: Sum(rhs),rhsMax =  -1.03852393351644E-07  8.34974320296400E+00
 cg2d: Sum(rhs),rhsMax =  -1.03837578535604E-07  8.35093803633076E+00
 cg2d: Sum(rhs),rhsMax =  -1.03820866570459E-07  8.35229628921908E+00
 cg2d: Sum(rhs),rhsMax =  -1.03801575335183E-07  8.35381348895399E+00
 cg2d: Sum(rhs),rhsMax =  -1.03780770643880E-07  8.35548405560547E+00
 cg2d: Sum(rhs),rhsMax =  -1.03758168279455E-07  8.35730145035772E+00
 cg2d: Sum(rhs),rhsMax =  -1.03734052459004E-07  8.35925834161856E+00
 cg2d: Sum(rhs),rhsMax =  -1.03707641585515E-07  8.36134677020027E+00
 cg2d: Sum(rhs),rhsMax =  -1.03680264373907E-07  8.36355833544679E+00
 EXTERNAL_FIELDS_LOAD, it=   3600630 : Reading new data, i0,i1=   11   12 (prev=   10   11 )
 DIC_FIELDS_LOAD, it=   3600630 : Reading new data, i0,i1=   11   12 (prev=   10   11 )
 cg2d: Sum(rhs),rhsMax =  -1.03651167648877E-07  8.36588437297216E+00
 cg2d: Sum(rhs),rhsMax =  -1.03620983793462E-07  8.36829873825493E+00
 cg2d: Sum(rhs),rhsMax =  -1.03590167555012E-07  8.37078098256463E+00
 cg2d: Sum(rhs),rhsMax =  -1.03558832620365E-07  8.37331076990736E+00
 cg2d: Sum(rhs),rhsMax =  -1.03526986094948E-07  8.37586828475342E+00
 cg2d: Sum(rhs),rhsMax =  -1.03494969039275E-07  8.37843651347270E+00
 cg2d: Sum(rhs),rhsMax =  -1.03462959089029E-07  8.38100058596186E+00
 cg2d: Sum(rhs),rhsMax =  -1.03431759157502E-07  8.38354800119352E+00
 cg2d: Sum(rhs),rhsMax =  -1.03400431328282E-07  8.38606907281455E+00
 cg2d: Sum(rhs),rhsMax =  -1.03369536930131E-07  8.38855705740912E+00
 cg2d: Sum(rhs),rhsMax =  -1.03339182544460E-07  8.39100818777902E+00
 cg2d: Sum(rhs),rhsMax =  -1.03309091059600E-07  8.39342162927294E+00
 cg2d: Sum(rhs),rhsMax =  -1.03279326424399E-07  8.39579937673915E+00
 cg2d: Sum(rhs),rhsMax =  -1.03250158645096E-07  8.39814606298476E+00
 cg2d: Sum(rhs),rhsMax =  -1.03221587721691E-07  8.40046867037939E+00
 cg2d: Sum(rhs),rhsMax =  -1.03192640210636E-07  8.40277617859981E+00
 cg2d: Sum(rhs),rhsMax =  -1.03164317977189E-07  8.40507915533000E+00
 cg2d: Sum(rhs),rhsMax =  -1.03135583628955E-07  8.40738929078001E+00
 cg2d: Sum(rhs),rhsMax =  -1.03106465587643E-07  8.40971893982490E+00
 cg2d: Sum(rhs),rhsMax =  -1.03077603341717E-07  8.41208069021930E+00
 cg2d: Sum(rhs),rhsMax =  -1.03047760546815E-07  8.41448664736628E+00
 cg2d: Sum(rhs),rhsMax =  -1.03017328001442E-07  8.41694808963461E+00
 cg2d: Sum(rhs),rhsMax =  -1.02985850958248E-07  8.41947641344255E+00
 cg2d: Sum(rhs),rhsMax =  -1.02953762848301E-07  8.42209465677943E+00
 cg2d: Sum(rhs),rhsMax =  -1.02920779454507E-07  8.42481840011152E+00
 cg2d: Sum(rhs),rhsMax =  -1.02885756803062E-07  8.42766143831664E+00
 cg2d: Sum(rhs),rhsMax =  -1.02849760708068E-07  8.43063562227923E+00
 cg2d: Sum(rhs),rhsMax =  -1.02811505087175E-07  8.43375048923612E+00
 cg2d: Sum(rhs),rhsMax =  -1.02771743115682E-07  8.43701312183894E+00
 cg2d: Sum(rhs),rhsMax =  -1.02730268736195E-07  8.44042805498092E+00
 cg2d: Sum(rhs),rhsMax =  -1.02686364300553E-07  8.44399728026233E+00
 cg2d: Sum(rhs),rhsMax =  -1.02641237731405E-07  8.44772028674299E+00
 cg2d: Sum(rhs),rhsMax =  -1.02594057693750E-07  8.45159419183708E+00
 cg2d: Sum(rhs),rhsMax =  -1.02545079982974E-07  8.45561389463918E+00
 cg2d: Sum(rhs),rhsMax =  -1.02494418285914E-07  8.45977229544668E+00
 cg2d: Sum(rhs),rhsMax =  -1.02442626825905E-07  8.46406043486096E+00
 cg2d: Sum(rhs),rhsMax =  -1.02389186906748E-07  8.46846786249842E+00
 cg2d: Sum(rhs),rhsMax =  -1.02334411167249E-07  8.47298294092153E+00
 cg2d: Sum(rhs),rhsMax =  -1.02278569613645E-07  8.47759310010859E+00
 cg2d: Sum(rhs),rhsMax =  -1.02221783038203E-07  8.48228511495217E+00
 cg2d: Sum(rhs),rhsMax =  -1.02164435134000E-07  8.48704540520819E+00
 cg2d: Sum(rhs),rhsMax =  -1.02106639587873E-07  8.49186038102640E+00
 cg2d: Sum(rhs),rhsMax =  -1.02048161920720E-07  8.49671683330553E+00
 cg2d: Sum(rhs),rhsMax =  -1.01989222400789E-07  8.50160229731839E+00
 cg2d: Sum(rhs),rhsMax =  -1.01930119456028E-07  8.50650541756349E+00
 cg2d: Sum(rhs),rhsMax =  -1.01871734159431E-07  8.51141606286167E+00
 cg2d: Sum(rhs),rhsMax =  -1.01813114383731E-07  8.51632550458549E+00
 cg2d: Sum(rhs),rhsMax =  -1.01754352499484E-07  8.52122658728227E+00
 cg2d: Sum(rhs),rhsMax =  -1.01695938781177E-07  8.52611387363114E+00
 cg2d: Sum(rhs),rhsMax =  -1.01637908755947E-07  8.53098375482528E+00
 cg2d: Sum(rhs),rhsMax =  -1.01580091893538E-07  8.53583450654913E+00
 cg2d: Sum(rhs),rhsMax =  -1.01522516615660E-07  8.54066629803099E+00
 cg2d: Sum(rhs),rhsMax =  -1.01465325030858E-07  8.54548114840508E+00
 cg2d: Sum(rhs),rhsMax =  -1.01408510033707E-07  8.55028281355603E+00
 cg2d: Sum(rhs),rhsMax =  -1.01351844250530E-07  8.55507663782142E+00
 cg2d: Sum(rhs),rhsMax =  -1.01294901355686E-07  8.55986938569464E+00
 cg2d: Sum(rhs),rhsMax =  -1.01238242677937E-07  8.56466907941720E+00
 cg2d: Sum(rhs),rhsMax =  -1.01181711897880E-07  8.56948481849350E+00
 cg2d: Sum(rhs),rhsMax =  -1.01124427942523E-07  8.57432655386490E+00
 cg2d: Sum(rhs),rhsMax =  -1.01066994773191E-07  8.57920482306538E+00
 EXTERNAL_FIELDS_LOAD, it=   3600690 : Reading new data, i0,i1=   12    1 (prev=   11   12 )
 DIC_FIELDS_LOAD, it=   3600690 : Reading new data, i0,i1=   12    1 (prev=   11   12 )
 cg2d: Sum(rhs),rhsMax =  -1.01009099751082E-07  8.58413045456863E+00
 cg2d: Sum(rhs),rhsMax =  -1.00950970249869E-07  8.58908772075261E+00
 cg2d: Sum(rhs),rhsMax =  -1.00892201260194E-07  8.59407113784658E+00
 cg2d: Sum(rhs),rhsMax =  -1.00833979388426E-07  8.59907533504329E+00
 cg2d: Sum(rhs),rhsMax =  -1.00775366718153E-07  8.60409527812640E+00
 cg2d: Sum(rhs),rhsMax =  -1.00716533779632E-07  8.60912639608676E+00
 cg2d: Sum(rhs),rhsMax =  -1.00657807422522E-07  8.61416467727663E+00
 cg2d: Sum(rhs),rhsMax =  -1.00599194752249E-07  8.61920670304104E+00
 cg2d: Sum(rhs),rhsMax =  -1.00540219705181E-07  8.62424959025954E+00
 cg2d: Sum(rhs),rhsMax =  -1.00481713616318E-07  8.62929084710763E+00
 cg2d: Sum(rhs),rhsMax =  -1.00423278581729E-07  8.63432823431656E+00
 cg2d: Sum(rhs),rhsMax =  -1.00365085131671E-07  8.63935967110789E+00
 cg2d: Sum(rhs),rhsMax =  -1.00306984052168E-07  8.64438326330631E+00
 cg2d: Sum(rhs),rhsMax =  -1.00248698231553E-07  8.64939736363611E+00
 cg2d: Sum(rhs),rhsMax =  -1.00191144269957E-07  8.65440069908248E+00
 cg2d: Sum(rhs),rhsMax =  -1.00133568992078E-07  8.65939260929048E+00
 cg2d: Sum(rhs),rhsMax =  -1.00076100295610E-07  8.66437312037654E+00
 cg2d: Sum(rhs),rhsMax =  -1.00019036608501E-07  8.66934290835576E+00
 cg2d: Sum(rhs),rhsMax =  -9.99617597585711E-08  8.67430225124478E+00
 cg2d: Sum(rhs),rhsMax =  -9.99047102823170E-08  8.67925494682890E+00
 cg2d: Sum(rhs),rhsMax =  -9.98482363456787E-08  8.68420608713978E+00
 cg2d: Sum(rhs),rhsMax =  -9.97913716105359E-08  8.68916081980566E+00
 cg2d: Sum(rhs),rhsMax =  -9.97343434505638E-08  8.69412416784580E+00
 cg2d: Sum(rhs),rhsMax =  -9.96773295014464E-08  8.69910085245627E+00
 cg2d: Sum(rhs),rhsMax =  -9.96202871306195E-08  8.70409517445086E+00
 cg2d: Sum(rhs),rhsMax =  -9.95629250155616E-08  8.70911095741398E+00
 cg2d: Sum(rhs),rhsMax =  -9.95059110664442E-08  8.71415148969223E+00
 cg2d: Sum(rhs),rhsMax =  -9.94480160443345E-08  8.71921930590513E+00
 cg2d: Sum(rhs),rhsMax =  -9.93902702361993E-08  8.72431607432102E+00
 cg2d: Sum(rhs),rhsMax =  -9.93317215147727E-08  8.72944261226047E+00
 cg2d: Sum(rhs),rhsMax =  -9.92735280647139E-08  8.73459893266904E+00
 cg2d: Sum(rhs),rhsMax =  -9.92147448641845E-08  8.73978430818157E+00
 cg2d: Sum(rhs),rhsMax =  -9.91560966667748E-08  8.74499735837366E+00
 cg2d: Sum(rhs),rhsMax =  -9.90966526615011E-08  8.75023614706347E+00
 cg2d: Sum(rhs),rhsMax =  -9.90366970654577E-08  8.75549829188909E+00
 cg2d: Sum(rhs),rhsMax =  -9.89772743764661E-08  8.76078107848702E+00
 cg2d: Sum(rhs),rhsMax =  -9.89177024735000E-08  8.76608155580086E+00
 cg2d: Sum(rhs),rhsMax =  -9.88579742511320E-08  8.77139664107964E+00
 cg2d: Sum(rhs),rhsMax =  -9.87977060162848E-08  8.77672320795606E+00
 cg2d: Sum(rhs),rhsMax =  -9.87382264838743E-08  8.78205816635757E+00
(PID.TID 0000.0001) Did not write pickup because writePickupAtEnd = FALSE
 DIC_SURFFORCING_INIT, it=   3600000 : Reading new data, i0,i1=   12    1
 QQ: pCO2 approximation method
 QQ first guess pH 8.2869849781645275,  7.129213793781922,  34.1535348423009,  2.0282,  5.43799999999999991E-4,  8.08490416966378689E-3,  2.3086000000000002
(PID.TID 0000.0001) // =======================================================
(PID.TID 0000.0001) // Model current state
(PID.TID 0000.0001) // =======================================================
(PID.TID 0000.0001) 
 EXTERNAL_FIELDS_LOAD, it=   3600000 : Reading new data, i0,i1=   12    1 (prev=   12    0 )
 DIC_FIELDS_LOAD, it=   3600000 : Reading new data, i0,i1=   12    1 (prev=   12    0 )
 cg2d: Sum(rhs),rhsMax =  -9.92433868418630E-08  8.73439671821315E+00
 cg2d: Sum(rhs),rhsMax =  -9.91844260056496E-08  8.73957958587058E+00
 cg2d: Sum(rhs),rhsMax =  -9.91252449011881E-08  8.74478969091806E+00
 cg2d: Sum(rhs),rhsMax =  -9.90665185440776E-08  8.75002495477880E+00
 cg2d: Sum(rhs),rhsMax =  -9.90068542705558E-08  8.75528284057604E+00
 cg2d: Sum(rhs),rhsMax =  -9.89473534218632E-08  8.76056047500076E+00
 cg2d: Sum(rhs),rhsMax =  -9.88878241514612E-08  8.76585475900637E+00
 cg2d: Sum(rhs),rhsMax =  -9.88279893476829E-08  8.77116249138180E+00
 cg2d: Sum(rhs),rhsMax =  -9.87682469144602E-08  8.77648047471154E+00
 cg2d: Sum(rhs),rhsMax =  -9.87087602766223E-08  8.78180560756084E+00
 cg2d: Sum(rhs),rhsMax =  -9.86489112619893E-08  8.78713494778165E+00
 cg2d: Sum(rhs),rhsMax =  -9.85891404070571E-08  8.79246575399440E+00
 cg2d: Sum(rhs),rhsMax =  -9.85293340249882E-08  8.79779549299699E+00
 cg2d: Sum(rhs),rhsMax =  -9.84700747608258E-08  8.80312181092759E+00
 cg2d: Sum(rhs),rhsMax =  -9.84108581292276E-08  8.80844249631459E+00
 cg2d: Sum(rhs),rhsMax =  -9.83516486030567E-08  8.81375547068360E+00
 cg2d: Sum(rhs),rhsMax =  -9.82926522397065E-08  8.81905885446822E+00
 cg2d: Sum(rhs),rhsMax =  -9.82337553523394E-08  8.82435106608147E+00
 cg2d: Sum(rhs),rhsMax =  -9.81751568929212E-08  8.82963093738125E+00
 cg2d: Sum(rhs),rhsMax =  -9.81166650149135E-08  8.83489782452132E+00
 cg2d: Sum(rhs),rhsMax =  -9.80585213028462E-08  8.84015168145881E+00
 cg2d: Sum(rhs),rhsMax =  -9.80007470730015E-08  8.84539306572338E+00
 cg2d: Sum(rhs),rhsMax =  -9.79429586323022E-08  8.85062306296846E+00
 cg2d: Sum(rhs),rhsMax =  -9.78853904598509E-08  8.85584316140559E+00
 cg2d: Sum(rhs),rhsMax =  -9.78280425556477E-08  8.86105508303604E+00
 cg2d: Sum(rhs),rhsMax =  -9.77709291305473E-08  8.86626061391844E+00
 cg2d: Sum(rhs),rhsMax =  -9.77132472712583E-08  8.87146147123075E+00
 cg2d: Sum(rhs),rhsMax =  -9.76563327981239E-08  8.87665923110881E+00
 cg2d: Sum(rhs),rhsMax =  -9.75990843699037E-08  8.88185530584736E+00
 cg2d: Sum(rhs),rhsMax =  -9.75420704207863E-08  8.88705095973601E+00
 EXTERNAL_FIELDS_LOAD, it=   3600030 : Reading new data, i0,i1=    1    2 (prev=   12    1 )
 DIC_FIELDS_LOAD, it=   3600030 : Reading new data, i0,i1=    1    2 (prev=   12    1 )
 cg2d: Sum(rhs),rhsMax =  -9.74853406887632E-08  8.89224735691429E+00
 cg2d: Sum(rhs),rhsMax =  -9.74287814869967E-08  8.89742706375180E+00
 cg2d: Sum(rhs),rhsMax =  -9.73723857100595E-08  8.90258000132907E+00
 cg2d: Sum(rhs),rhsMax =  -9.73164659967551E-08  8.90769672951691E+00
 cg2d: Sum(rhs),rhsMax =  -9.72612284044772E-08  8.91276878246959E+00
 cg2d: Sum(rhs),rhsMax =  -9.72070637317302E-08  8.91778889429735E+00
 cg2d: Sum(rhs),rhsMax =  -9.71530482729577E-08  8.92275113682099E+00
 cg2d: Sum(rhs),rhsMax =  -9.70993241367069E-08  8.92765100404361E+00
 cg2d: Sum(rhs),rhsMax =  -9.70471916161841E-08  8.93248545016401E+00
 cg2d: Sum(rhs),rhsMax =  -9.69955280538670E-08  8.93725287491615E+00
 cg2d: Sum(rhs),rhsMax =  -9.69441273923621E-08  8.94195305183593E+00
 cg2d: Sum(rhs),rhsMax =  -9.68941833434656E-08  8.94658701582531E+00
 cg2d: Sum(rhs),rhsMax =  -9.68450208915783E-08  8.95115692214719E+00
 cg2d: Sum(rhs),rhsMax =  -9.67962705544778E-08  8.95566589123099E+00
 cg2d: Sum(rhs),rhsMax =  -9.67482165492584E-08  8.96011786358850E+00
 cg2d: Sum(rhs),rhsMax =  -9.67008020325011E-08  8.96451747891563E+00
 cg2d: Sum(rhs),rhsMax =  -9.66539346336504E-08  8.96886998187158E+00
 cg2d: Sum(rhs),rhsMax =  -9.66078843589457E-08  8.97318115409823E+00
 cg2d: Sum(rhs),rhsMax =  -9.65621254067628E-08  8.97745726495199E+00
 cg2d: Sum(rhs),rhsMax =  -9.65159685506478E-08  8.98170502198163E+00
 cg2d: Sum(rhs),rhsMax =  -9.64709272466280E-08  8.98593151889555E+00
 cg2d: Sum(rhs),rhsMax =  -9.64258006774799E-08  8.99014423145949E+00
 cg2d: Sum(rhs),rhsMax =  -9.63806954246138E-08  8.99435085408351E+00
 cg2d: Sum(rhs),rhsMax =  -9.63354978011921E-08  8.99855914272681E+00
 cg2d: Sum(rhs),rhsMax =  -9.62904493917449E-08  9.00277662786875E+00
 cg2d: Sum(rhs),rhsMax =  -9.62449746566563E-08  9.00700998220796E+00
 cg2d: Sum(rhs),rhsMax =  -9.61997557169525E-08  9.01126574761483E+00
 cg2d: Sum(rhs),rhsMax =  -9.61540180810516E-08  9.01555039729210E+00
 cg2d: Sum(rhs),rhsMax =  -9.61077120109621E-08  9.01986971435378E+00
 cg2d: Sum(rhs),rhsMax =  -9.60613775191632E-08  9.02422880815445E+00
 cg2d: Sum(rhs),rhsMax =  -9.60143182737738E-08  9.02863205182447E+00
 cg2d: Sum(rhs),rhsMax =  -9.59668398081703E-08  9.03308295193821E+00
 cg2d: Sum(rhs),rhsMax =  -9.59189492277801E-08  9.03758400719746E+00
 cg2d: Sum(rhs),rhsMax =  -9.58706323217484E-08  9.04213663854453E+00
 cg2d: Sum(rhs),rhsMax =  -9.58215622404168E-08  9.04674109185253E+00
 cg2d: Sum(rhs),rhsMax =  -9.57721724148541E-08  9.05139640217902E+00
 cg2d: Sum(rhs),rhsMax =  -9.57223775799321E-08  9.05610040614876E+00
 cg2d: Sum(rhs),rhsMax =  -9.56718224642827E-08  9.06084979109159E+00
 cg2d: Sum(rhs),rhsMax =  -9.56211039238042E-08  9.06564017672268E+00
 cg2d: Sum(rhs),rhsMax =  -9.55700798499493E-08  9.07046622792088E+00
 cg2d: Sum(rhs),rhsMax =  -9.55189918272481E-08  9.07532179655311E+00
 cg2d: Sum(rhs),rhsMax =  -9.54672145780933E-08  9.08020008054443E+00
 cg2d: Sum(rhs),rhsMax =  -9.54156860188959E-08  9.08509379067778E+00
 cg2d: Sum(rhs),rhsMax =  -9.53640864054250E-08  9.08999532389517E+00
 cg2d: Sum(rhs),rhsMax =  -9.53120391500306E-08  9.09489685062687E+00
 cg2d: Sum(rhs),rhsMax =  -9.52604963799786E-08  9.09979078670731E+00
 cg2d: Sum(rhs),rhsMax =  -9.52091738781746E-08  9.10466952325132E+00
 cg2d: Sum(rhs),rhsMax =  -9.51581995423112E-08  9.10952586151125E+00
 cg2d: Sum(rhs),rhsMax =  -9.51075378452515E-08  9.11435305322486E+00
 cg2d: Sum(rhs),rhsMax =  -9.50568974644739E-08  9.11914489544444E+00
 cg2d: Sum(rhs),rhsMax =  -9.50070173644235E-08  9.12389583482653E+00
 cg2d: Sum(rhs),rhsMax =  -9.49582670273230E-08  9.12860106773695E+00
 cg2d: Sum(rhs),rhsMax =  -9.49094669522310E-08  9.13325671324743E+00
 cg2d: Sum(rhs),rhsMax =  -9.48612637330370E-08  9.13785989332165E+00
 cg2d: Sum(rhs),rhsMax =  -9.48139060596986E-08  9.14240888612431E+00
 cg2d: Sum(rhs),rhsMax =  -9.47671381368309E-08  9.14690322805975E+00
 cg2d: Sum(rhs),rhsMax =  -9.47210025969980E-08  9.15134376400067E+00
 cg2d: Sum(rhs),rhsMax =  -9.46753857533622E-08  9.15573262291172E+00
 cg2d: Sum(rhs),rhsMax =  -9.46305078741716E-08  9.16007311317651E+00
 cg2d: Sum(rhs),rhsMax =  -9.45855020972886E-08  9.16436954661381E+00
 EXTERNAL_FIELDS_LOAD, it=   3600090 : Reading new data, i0,i1=    2    3 (prev=    1    2 )
 DIC_FIELDS_LOAD, it=   3600090 : Reading new data, i0,i1=    2    3 (prev=    1    2 )
 cg2d: Sum(rhs),rhsMax =  -9.45416047670733E-08  9.16862700792054E+00
 cg2d: Sum(rhs),rhsMax =  -9.44977784911316E-08  9.17286965792043E+00
 cg2d: Sum(rhs),rhsMax =  -9.44538882663437E-08  9.17711460232796E+00
 cg2d: Sum(rhs),rhsMax =  -9.44097777733077E-08  9.18137827264839E+00
 cg2d: Sum(rhs),rhsMax =  -9.43655606988614E-08  9.18567586102450E+00
 cg2d: Sum(rhs),rhsMax =  -9.43208533499273E-08  9.19002086507332E+00
 cg2d: Sum(rhs),rhsMax =  -9.42755065125311E-08  9.19442473147613E+00
 cg2d: Sum(rhs),rhsMax =  -9.42294988703907E-08  9.19889660310093E+00
 cg2d: Sum(rhs),rhsMax =  -9.41831217460276E-08  9.20344317156002E+00
 cg2d: Sum(rhs),rhsMax =  -9.41357711781166E-08  9.20806863385625E+00
 cg2d: Sum(rhs),rhsMax =  -9.40875679589226E-08  9.21277472508850E+00
 cg2d: Sum(rhs),rhsMax =  -9.40387323566938E-08  9.21756082935263E+00
 cg2d: Sum(rhs),rhsMax =  -9.39891506845925E-08  9.22242415169496E+00
 cg2d: Sum(rhs),rhsMax =  -9.39387589937724E-08  9.22735992735964E+00
 cg2d: Sum(rhs),rhsMax =  -9.38874578082505E-08  9.23236166048178E+00
 cg2d: Sum(rhs),rhsMax =  -9.38360713576003E-08  9.23742136926884E+00
 cg2d: Sum(rhs),rhsMax =  -9.37847204340869E-08  9.24252982829311E+00
 cg2d: Sum(rhs),rhsMax =  -9.37326518624104E-08  9.24767682825910E+00
 cg2d: Sum(rhs),rhsMax =  -9.36799651185538E-08  9.25285135651627E+00
 cg2d: Sum(rhs),rhsMax =  -9.36278468088858E-08  9.25804181556396E+00
 cg2d: Sum(rhs),rhsMax =  -9.35753803332773E-08  9.26323624437734E+00
 cg2d: Sum(rhs),rhsMax =  -9.35233543941649E-08  9.26842252954541E+00
 cg2d: Sum(rhs),rhsMax =  -9.34712076627875E-08  9.27358855590945E+00
 cg2d: Sum(rhs),rhsMax =  -9.34198851609835E-08  9.27872221865362E+00
 cg2d: Sum(rhs),rhsMax =  -9.33687331894362E-08  9.28381269175841E+00
 cg2d: Sum(rhs),rhsMax =  -9.33183130769066E-08  9.28884990364347E+00
 cg2d: Sum(rhs),rhsMax =  -9.32684542931383E-08  9.29382460831193E+00
 cg2d: Sum(rhs),rhsMax =  -9.32194410552256E-08  9.29872876125425E+00
 cg2d: Sum(rhs),rhsMax =  -9.31711383600486E-08  9.30355578941157E+00
 cg2d: Sum(rhs),rhsMax =  -9.31240364820951E-08  9.30830071441787E+00
 cg2d: Sum(rhs),rhsMax =  -9.30773893514925E-08  9.31296016039586E+00
 cg2d: Sum(rhs),rhsMax =  -9.30318719838397E-08  9.31753230345820E+00
 cg2d: Sum(rhs),rhsMax =  -9.29872783217434E-08  9.32201677457960E+00
 cg2d: Sum(rhs),rhsMax =  -9.29437931063148E-08  9.32641453687162E+00
 cg2d: Sum(rhs),rhsMax =  -9.29007910599466E-08  9.33072777407330E+00
 cg2d: Sum(rhs),rhsMax =  -9.28590253579387E-08  9.33495977832897E+00
 cg2d: Sum(rhs),rhsMax =  -9.28177001924269E-08  9.33911483571782E+00
 cg2d: Sum(rhs),rhsMax =  -9.27770358316593E-08  9.34319809772528E+00
 cg2d: Sum(rhs),rhsMax =  -9.27373591252945E-08  9.34721542637213E+00
 cg2d: Sum(rhs),rhsMax =  -9.26982295368362E-08  9.35117321728378E+00
 cg2d: Sum(rhs),rhsMax =  -9.26594978523099E-08  9.35507820898651E+00
 cg2d: Sum(rhs),rhsMax =  -9.26212777585533E-08  9.35893728101038E+00
 cg2d: Sum(rhs),rhsMax =  -9.25836900478316E-08  9.36275724876052E+00
 cg2d: Sum(rhs),rhsMax =  -9.25467347201447E-08  9.36654466497940E+00
 cg2d: Sum(rhs),rhsMax =  -9.25093388559617E-08  9.37030563739009E+00
 cg2d: Sum(rhs),rhsMax =  -9.24723693174201E-08  9.37404566529748E+00
 cg2d: Sum(rhs),rhsMax =  -9.24358261045199E-08  9.37776950669782E+00
 cg2d: Sum(rhs),rhsMax =  -9.23998015878169E-08  9.38148107939576E+00
 cg2d: Sum(rhs),rhsMax =  -9.23633649563271E-08  9.38518340080342E+00
 cg2d: Sum(rhs),rhsMax =  -9.23271628039402E-08  9.38887856431341E+00
 cg2d: Sum(rhs),rhsMax =  -9.22907545941598E-08  9.39256775253961E+00
 cg2d: Sum(rhs),rhsMax =  -9.22549361348501E-08  9.39625127829926E+00
 cg2d: Sum(rhs),rhsMax =  -9.22186487173349E-08  9.39992865313115E+00
 cg2d: Sum(rhs),rhsMax =  -9.21831713185384E-08  9.40359867110262E+00
 cg2d: Sum(rhs),rhsMax =  -9.21473457538013E-08  9.40725949891390E+00
 cg2d: Sum(rhs),rhsMax =  -9.21119038821416E-08  9.41090875978471E+00
 cg2d: Sum(rhs),rhsMax =  -9.20763412182168E-08  9.41454361858659E+00
 cg2d: Sum(rhs),rhsMax =  -9.20410343496769E-08  9.41816086827301E+00
 cg2d: Sum(rhs),rhsMax =  -9.20060685416502E-08  9.42175701532902E+00
 cg2d: Sum(rhs),rhsMax =  -9.19711879987517E-08  9.42532836100955E+00
 EXTERNAL_FIELDS_LOAD, it=   3600150 : Reading new data, i0,i1=    3    4 (prev=    2    3 )
 DIC_FIELDS_LOAD, it=   3600150 : Reading new data, i0,i1=    3    4 (prev=    2    3 )
 cg2d: Sum(rhs),rhsMax =  -9.19367622032041E-08  9.42887108055882E+00
 cg2d: Sum(rhs),rhsMax =  -9.19030327395376E-08  9.43235832256638E+00
 cg2d: Sum(rhs),rhsMax =  -9.18696727580937E-08  9.43577294710938E+00
 cg2d: Sum(rhs),rhsMax =  -9.18375349101552E-08  9.43909901719340E+00
 cg2d: Sum(rhs),rhsMax =  -9.18056457521743E-08  9.44232226351574E+00
 cg2d: Sum(rhs),rhsMax =  -9.17754618967592E-08  9.44543045713848E+00
 cg2d: Sum(rhs),rhsMax =  -9.17468696570722E-08  9.44841368652191E+00
 cg2d: Sum(rhs),rhsMax =  -9.17188671678559E-08  9.45126453300903E+00
 cg2d: Sum(rhs),rhsMax =  -9.16929749905648E-08  9.45397814472091E+00
 cg2d: Sum(rhs),rhsMax =  -9.16680278351123E-08  9.45655223330268E+00
 cg2d: Sum(rhs),rhsMax =  -9.16445941356869E-08  9.45898700078271E+00
 cg2d: Sum(rhs),rhsMax =  -9.16223754643397E-08  9.46128500172268E+00
 cg2d: Sum(rhs),rhsMax =  -9.16011231311131E-08  9.46345095767279E+00
 cg2d: Sum(rhs),rhsMax =  -9.15811568802383E-08  9.46549153513779E+00
 cg2d: Sum(rhs),rhsMax =  -9.15625619768434E-08  9.46741508859273E+00
 cg2d: Sum(rhs),rhsMax =  -9.15451252581079E-08  9.46923137659912E+00
 cg2d: Sum(rhs),rhsMax =  -9.15285980340741E-08  9.47095124324780E+00
 cg2d: Sum(rhs),rhsMax =  -9.15126108225195E-08  9.47258633929544E+00
 cg2d: Sum(rhs),rhsMax =  -9.14974762622478E-08  9.47414881667898E+00
 cg2d: Sum(rhs),rhsMax =  -9.14831588261222E-08  9.47565102854520E+00
 cg2d: Sum(rhs),rhsMax =  -9.14691185016636E-08  9.47710524161440E+00
 cg2d: Sum(rhs),rhsMax =  -9.14552913400257E-08  9.47852337330871E+00
 cg2d: Sum(rhs),rhsMax =  -9.14417910280463E-08  9.47991675839448E+00
 cg2d: Sum(rhs),rhsMax =  -9.14288023068366E-08  9.48129594936036E+00
 cg2d: Sum(rhs),rhsMax =  -9.14153162057119E-08  9.48267055268677E+00
 cg2d: Sum(rhs),rhsMax =  -9.14016951014673E-08  9.48404910672501E+00
 cg2d: Sum(rhs),rhsMax =  -9.13883866360266E-08  9.48543898881096E+00
 cg2d: Sum(rhs),rhsMax =  -9.13749147457565E-08  9.48684634838855E+00
 cg2d: Sum(rhs),rhsMax =  -9.13611231112554E-08  9.48827608016959E+00
 cg2d: Sum(rhs),rhsMax =  -9.13465854068818E-08  9.48973182637241E+00
 cg2d: Sum(rhs),rhsMax =  -9.13324456064402E-08  9.49121598932757E+00
 cg2d: Sum(rhs),rhsMax =  -9.13176805283911E-08  9.49272976482376E+00
 cg2d: Sum(rhs),rhsMax =  -9.13029793991882E-08  9.49427318407705E+00
 cg2d: Sum(rhs),rhsMax =  -9.12876600978052E-08  9.49584517202971E+00
 cg2d: Sum(rhs),rhsMax =  -9.12722768475760E-08  9.49744362566448E+00
 cg2d: Sum(rhs),rhsMax =  -9.12563962174318E-08  9.49906550905340E+00
 cg2d: Sum(rhs),rhsMax =  -9.12406292741252E-08  9.50070696299551E+00
 cg2d: Sum(rhs),rhsMax =  -9.12245567974423E-08  9.50236342680402E+00
 cg2d: Sum(rhs),rhsMax =  -9.12086122184519E-08  9.50402976802920E+00
 cg2d: Sum(rhs),rhsMax =  -9.11920636781360E-08  9.50570042893596E+00
 cg2d: Sum(rhs),rhsMax =  -9.11760835720088E-08  9.50736956748404E+00
 cg2d: Sum(rhs),rhsMax =  -9.11599897790438E-08  9.50903122489705E+00
 cg2d: Sum(rhs),rhsMax =  -9.11439812512072E-08  9.51067944299842E+00
 cg2d: Sum(rhs),rhsMax =  -9.11286619498242E-08  9.51230836255520E+00
 cg2d: Sum(rhs),rhsMax =  -9.11128452685261E-08  9.51391232343393E+00
 cg2d: Sum(rhs),rhsMax =  -9.10978172896648E-08  9.51548598638282E+00
 cg2d: Sum(rhs),rhsMax =  -9.10825903588375E-08  9.51702443978652E+00
 cg2d: Sum(rhs),rhsMax =  -9.10679744947629E-08  9.51852327194360E+00
 cg2d: Sum(rhs),rhsMax =  -9.10538062726118E-08  9.51997861079381E+00
 cg2d: Sum(rhs),rhsMax =  -9.10403272769145E-08  9.52138713289450E+00
 cg2d: Sum(rhs),rhsMax =  -9.10271680254482E-08  9.52274605554116E+00
 cg2d: Sum(rhs),rhsMax =  -9.10143498344951E-08  9.52405313717331E+00
 cg2d: Sum(rhs),rhsMax =  -9.10022919242692E-08  9.52530666028232E+00
 cg2d: Sum(rhs),rhsMax =  -9.09905324419924E-08  9.52650541109617E+00
 cg2d: Sum(rhs),rhsMax =  -9.09794692915966E-08  9.52764864727963E+00
 cg2d: Sum(rhs),rhsMax =  -9.09689816808168E-08  9.52873605079492E+00
 cg2d: Sum(rhs),rhsMax =  -9.09588422359775E-08  9.52976767849440E+00
 cg2d: Sum(rhs),rhsMax =  -9.09493280687457E-08  9.53074391639987E+00
 cg2d: Sum(rhs),rhsMax =  -9.09404391791213E-08  9.53166530103624E+00
 cg2d: Sum(rhs),rhsMax =  -9.09316284491979E-08  9.53253252588939E+00
 EXTERNAL_FIELDS_LOAD, it=   3600210 : Reading new data, i0,i1=    4    5 (prev=    3    4 )
 DIC_FIELDS_LOAD, it=   3600210 : Reading new data, i0,i1=    4    5 (prev=    3    4 )
 cg2d: Sum(rhs),rhsMax =  -9.09236845814121E-08  9.53334634295211E+00
 cg2d: Sum(rhs),rhsMax =  -9.09162238826866E-08  9.53412016630968E+00
 cg2d: Sum(rhs),rhsMax =  -9.09088555545168E-08  9.53486144691540E+00
 cg2d: Sum(rhs),rhsMax =  -9.09020556605356E-08  9.53557668814411E+00
 cg2d: Sum(rhs),rhsMax =  -9.08950781308704E-08  9.53626990934916E+00
 cg2d: Sum(rhs),rhsMax =  -9.08885269268467E-08  9.53694479201801E+00
 cg2d: Sum(rhs),rhsMax =  -9.08819686173956E-08  9.53760402798875E+00
 cg2d: Sum(rhs),rhsMax =  -9.08758792661502E-08  9.53824943192211E+00
 cg2d: Sum(rhs),rhsMax =  -9.08692001644340E-08  9.53888215688552E+00
 cg2d: Sum(rhs),rhsMax =  -9.08633310814366E-08  9.53950304357000E+00
 cg2d: Sum(rhs),rhsMax =  -9.08575117364308E-08  9.54011304176576E+00
 cg2d: Sum(rhs),rhsMax =  -9.08516142317239E-08  9.54071301635899E+00
 cg2d: Sum(rhs),rhsMax =  -9.08458943627011E-08  9.54130322912294E+00
 cg2d: Sum(rhs),rhsMax =  -9.08400252797037E-08  9.54188272003942E+00
 cg2d: Sum(rhs),rhsMax =  -9.08349306882883E-08  9.54244934290944E+00
 cg2d: Sum(rhs),rhsMax =  -9.08295305634965E-08  9.54299999628384E+00
 cg2d: Sum(rhs),rhsMax =  -9.08241872821236E-08  9.54353092308816E+00
 cg2d: Sum(rhs),rhsMax =  -9.08189861092978E-08  9.54403796863502E+00
 cg2d: Sum(rhs),rhsMax =  -9.08142894218145E-08  9.54451678452915E+00
 cg2d: Sum(rhs),rhsMax =  -9.08097916862971E-08  9.54496303374895E+00
 cg2d: Sum(rhs),rhsMax =  -9.08056705384297E-08  9.54537256688658E+00
 cg2d: Sum(rhs),rhsMax =  -9.08016417611179E-08  9.54574155534994E+00
 cg2d: Sum(rhs),rhsMax =  -9.07979256226099E-08  9.54606657177462E+00
 cg2d: Sum(rhs),rhsMax =  -9.07952681927782E-08  9.54634467959792E+00
 cg2d: Sum(rhs),rhsMax =  -9.07924189164078E-08  9.54657345840157E+00
 cg2d: Sum(rhs),rhsMax =  -9.07902162339269E-08  9.54675102924543E+00
 cg2d: Sum(rhs),rhsMax =  -9.07886743561903E-08  9.54687605379506E+00
 cg2d: Sum(rhs),rhsMax =  -9.07877648614885E-08  9.54694771403842E+00
 cg2d: Sum(rhs),rhsMax =  -9.07869193156330E-08  9.54696566951997E+00
 cg2d: Sum(rhs),rhsMax =  -9.07865995714019E-08  9.54692999068711E+00
 cg2d: Sum(rhs),rhsMax =  -9.07872106381546E-08  9.54684108541375E+00
 cg2d: Sum(rhs),rhsMax =  -9.07884682987969E-08  9.54669963264824E+00
 cg2d: Sum(rhs),rhsMax =  -9.07898467517043E-08  9.54650651972953E+00
 cg2d: Sum(rhs),rhsMax =  -9.07915449488428E-08  9.54626274758502E+00
 cg2d: Sum(rhs),rhsMax =  -9.07941455352557E-08  9.54596935750525E+00
 cg2d: Sum(rhs),rhsMax =  -9.07970800767544E-08  9.54562738075971E+00
 cg2d: Sum(rhs),rhsMax =  -9.08000501453898E-08  9.54523778248193E+00
 cg2d: Sum(rhs),rhsMax =  -9.08038089164620E-08  9.54480140259877E+00
 cg2d: Sum(rhs),rhsMax =  -9.08078732209106E-08  9.54431888382345E+00
 cg2d: Sum(rhs),rhsMax =  -9.08128896526250E-08  9.54379063440704E+00
 cg2d: Sum(rhs),rhsMax =  -9.08179274006216E-08  9.54321682610369E+00
 cg2d: Sum(rhs),rhsMax =  -9.08231072571652E-08  9.54259741627488E+00
 cg2d: Sum(rhs),rhsMax =  -9.08294239820862E-08  9.54193218180504E+00
 cg2d: Sum(rhs),rhsMax =  -9.08357407070071E-08  9.54122075566689E+00
 cg2d: Sum(rhs),rhsMax =  -9.08426116552619E-08  9.54046266149910E+00
 cg2d: Sum(rhs),rhsMax =  -9.08497668206110E-08  9.53965734943055E+00
 cg2d: Sum(rhs),rhsMax =  -9.08576467395505E-08  9.53880424419014E+00
 cg2d: Sum(rhs),rhsMax =  -9.08659032461401E-08  9.53790282192021E+00
 cg2d: Sum(rhs),rhsMax =  -9.08746713434994E-08  9.53695268180845E+00
 cg2d: Sum(rhs),rhsMax =  -9.08840078750472E-08  9.53595362230667E+00
 cg2d: Sum(rhs),rhsMax =  -9.08936215182621E-08  9.53490571447803E+00
 cg2d: Sum(rhs),rhsMax =  -9.09042654484438E-08  9.53380930168364E+00
 cg2d: Sum(rhs),rhsMax =  -9.09145470018302E-08  9.53266493640869E+00
 cg2d: Sum(rhs),rhsMax =  -9.09259227910297E-08  9.53147332889492E+00
 cg2d: Sum(rhs),rhsMax =  -9.09384141323244E-08  9.53023537646442E+00
 cg2d: Sum(rhs),rhsMax =  -9.09505217805417E-08  9.52895220993865E+00
 cg2d: Sum(rhs),rhsMax =  -9.09629278567081E-08  9.52762520262973E+00
 cg2d: Sum(rhs),rhsMax =  -9.09757815747980E-08  9.52625594300855E+00
 cg2d: Sum(rhs),rhsMax =  -9.09892747813501E-08  9.52484621149773E+00
 cg2d: Sum(rhs),rhsMax =  -9.10029882561503E-08  9.52339794221070E+00
 EXTERNAL_FIELDS_LOAD, it=   3600270 : Reading new data, i0,i1=    5    6 (prev=    4    5 )
 DIC_FIELDS_LOAD, it=   3600270 : Reading new data, i0,i1=    5    6 (prev=    4    5 )
 cg2d: Sum(rhs),rhsMax =  -9.10169930534721E-08  9.52191318167782E+00
 cg2d: Sum(rhs),rhsMax =  -9.10311257484864E-08  9.52041761022813E+00
 cg2d: Sum(rhs),rhsMax =  -9.10455213443129E-08  9.51892843351038E+00
 cg2d: Sum(rhs),rhsMax =  -9.10593485059508E-08  9.51746258399289E+00
 cg2d: Sum(rhs),rhsMax =  -9.10729625047679E-08  9.51603636817957E+00
 cg2d: Sum(rhs),rhsMax =  -9.10860507019606E-08  9.51466517931999E+00
 cg2d: Sum(rhs),rhsMax =  -9.10986344138109E-08  9.51336322967766E+00
 cg2d: Sum(rhs),rhsMax =  -9.11102233658312E-08  9.51214329321166E+00
 cg2d: Sum(rhs),rhsMax =  -9.11212367782355E-08  9.51101645114812E+00
 cg2d: Sum(rhs),rhsMax =  -9.11308219997409E-08  9.50999185515969E+00
 cg2d: Sum(rhs),rhsMax =  -9.11397606273567E-08  9.50907652378690E+00
 cg2d: Sum(rhs),rhsMax =  -9.11473847509114E-08  9.50827517814543E+00
 cg2d: Sum(rhs),rhsMax =  -9.11540354309182E-08  9.50759014752173E+00
 cg2d: Sum(rhs),rhsMax =  -9.11595421371203E-08  9.50702134377118E+00
 cg2d: Sum(rhs),rhsMax =  -9.11640682943471E-08  9.50656629011210E+00
 cg2d: Sum(rhs),rhsMax =  -9.11673012637948E-08  9.50622019182364E+00
 cg2d: Sum(rhs),rhsMax =  -9.11696744765322E-08  9.50597606771963E+00
 cg2d: Sum(rhs),rhsMax =  -9.11708539774736E-08  9.50582494250500E+00
 cg2d: Sum(rhs),rhsMax =  -9.11716497853376E-08  9.50575608648473E+00
 cg2d: Sum(rhs),rhsMax =  -9.11714224116622E-08  9.50575729587021E+00
 cg2d: Sum(rhs),rhsMax =  -9.11708468720462E-08  9.50581523373235E+00
 cg2d: Sum(rhs),rhsMax =  -9.11699018502077E-08  9.50591575069248E+00
 cg2d: Sum(rhs),rhsMax =  -9.11685589244371E-08  9.50604420974297E+00
 cg2d: Sum(rhs),rhsMax =  -9.11669744141363E-08  9.50618583284504E+00
 cg2d: Sum(rhs),rhsMax =  -9.11656883317846E-08  9.50632606101357E+00
 cg2d: Sum(rhs),rhsMax =  -9.11643525114414E-08  9.50645090757042E+00
 cg2d: Sum(rhs),rhsMax =  -9.11635567035773E-08  9.50654729113363E+00
 cg2d: Sum(rhs),rhsMax =  -9.11632938027651E-08  9.50660334354173E+00
 cg2d: Sum(rhs),rhsMax =  -9.11633009081925E-08  9.50660868062301E+00
 cg2d: Sum(rhs),rhsMax =  -9.11639332912273E-08  9.50655462562515E+00
 cg2d: Sum(rhs),rhsMax =  -9.11649706836215E-08  9.50643436311089E+00
 cg2d: Sum(rhs),rhsMax =  -9.11672302095212E-08  9.50624304674150E+00
 cg2d: Sum(rhs),rhsMax =  -9.11696460548228E-08  9.50597781905916E+00
 cg2d: Sum(rhs),rhsMax =  -9.11727440211507E-08  9.50563777710892E+00
 cg2d: Sum(rhs),rhsMax =  -9.11770854372662E-08  9.50522393135291E+00
 cg2d: Sum(rhs),rhsMax =  -9.11816186999204E-08  9.50473911463816E+00
 cg2d: Sum(rhs),rhsMax =  -9.11870614572763E-08  9.50418773930678E+00
 cg2d: Sum(rhs),rhsMax =  -9.11928168534359E-08  9.50357558691374E+00
 cg2d: Sum(rhs),rhsMax =  -9.11992827923314E-08  9.50290964447458E+00
 cg2d: Sum(rhs),rhsMax =  -9.12065729608003E-08  9.50219791542795E+00
 cg2d: Sum(rhs),rhsMax =  -9.12139270781154E-08  9.50144918276843E+00
 cg2d: Sum(rhs),rhsMax =  -9.12212811954305E-08  9.50067274580360E+00
 cg2d: Sum(rhs),rhsMax =  -9.12293955934729E-08  9.49987815929010E+00
 cg2d: Sum(rhs),rhsMax =  -9.12369131356172E-08  9.49907498366882E+00
 cg2d: Sum(rhs),rhsMax =  -9.12447788437021E-08  9.49827255755378E+00
 cg2d: Sum(rhs),rhsMax =  -9.12528008711888E-08  9.49747978836020E+00
 cg2d: Sum(rhs),rhsMax =  -9.12602686753416E-08  9.49670496341604E+00
 cg2d: Sum(rhs),rhsMax =  -9.12679780640246E-08  9.49595558374171E+00
 cg2d: Sum(rhs),rhsMax =  -9.12747850634332E-08  9.49523821505845E+00
 cg2d: Sum(rhs),rhsMax =  -9.12811941589098E-08  9.49455836839740E+00
 cg2d: Sum(rhs),rhsMax =  -9.12878306280618E-08  9.49392042323925E+00
 cg2d: Sum(rhs),rhsMax =  -9.12937139219139E-08  9.49332754785973E+00
 cg2d: Sum(rhs),rhsMax =  -9.12992632606802E-08  9.49278165465699E+00
 cg2d: Sum(rhs),rhsMax =  -9.13035833605136E-08  9.49228339433203E+00
 cg2d: Sum(rhs),rhsMax =  -9.13086424247922E-08  9.49183218209292E+00
 cg2d: Sum(rhs),rhsMax =  -9.13127422563775E-08  9.49142625728328E+00
 cg2d: Sum(rhs),rhsMax =  -9.13163518134752E-08  9.49106276286301E+00
 cg2d: Sum(rhs),rhsMax =  -9.13194782015125E-08  9.49073783789306E+00
 cg2d: Sum(rhs),rhsMax =  -9.13225406407037E-08  9.49044672400271E+00
 cg2d: Sum(rhs),rhsMax =  -9.13253046519458E-08  9.49018390323782E+00
 EXTERNAL_FIELDS_LOAD, it=   3600330 : Reading new data, i0,i1=    6    7 (prev=    5    6 )
 DIC_FIELDS_LOAD, it=   3600330 : Reading new data, i0,i1=    6    7 (prev=    5    6 )
 cg2d: Sum(rhs),rhsMax =  -9.13276210212643E-08  9.48994325700856E+00
 cg2d: Sum(rhs),rhsMax =  -9.13303352945150E-08  9.48970801758053E+00
 cg2d: Sum(rhs),rhsMax =  -9.13328221940901E-08  9.48946471682098E+00
 cg2d: Sum(rhs),rhsMax =  -9.13353943587936E-08  9.48919980375378E+00
 cg2d: Sum(rhs),rhsMax =  -9.13383644274290E-08  9.48889996251626E+00
 cg2d: Sum(rhs),rhsMax =  -9.13418460868343E-08  9.48855235316500E+00
 cg2d: Sum(rhs),rhsMax =  -9.13461093432488E-08  9.48814487205053E+00
 cg2d: Sum(rhs),rhsMax =  -9.13508344524416E-08  9.48766639266868E+00
 cg2d: Sum(rhs),rhsMax =  -9.13563624749258E-08  9.48710698236420E+00
 cg2d: Sum(rhs),rhsMax =  -9.13624518261713E-08  9.48645808347463E+00
 cg2d: Sum(rhs),rhsMax =  -9.13698130489138E-08  9.48571268422533E+00
 cg2d: Sum(rhs),rhsMax =  -9.13783111400335E-08  9.48486545850383E+00
 cg2d: Sum(rhs),rhsMax =  -9.13876760932908E-08  9.48391285858374E+00
 cg2d: Sum(rhs),rhsMax =  -9.13977800109933E-08  9.48285315351105E+00
 cg2d: Sum(rhs),rhsMax =  -9.14093334358768E-08  9.48168641391458E+00
 cg2d: Sum(rhs),rhsMax =  -9.14215760872139E-08  9.48041445516485E+00
 cg2d: Sum(rhs),rhsMax =  -9.14348703418000E-08  9.47904073781749E+00
 cg2d: Sum(rhs),rhsMax =  -9.14490314585237E-08  9.47757022510765E+00
 cg2d: Sum(rhs),rhsMax =  -9.14641802296501E-08  9.47600920384239E+00
 cg2d: Sum(rhs),rhsMax =  -9.14802384954783E-08  9.47436507523804E+00
 cg2d: Sum(rhs),rhsMax =  -9.14970428311790E-08  9.47264612546539E+00
 cg2d: Sum(rhs),rhsMax =  -9.15143658630768E-08  9.47086128598380E+00
 cg2d: Sum(rhs),rhsMax =  -9.15317244221114E-08  9.46901988541289E+00
 cg2d: Sum(rhs),rhsMax =  -9.15503548526431E-08  9.46713139755286E+00
 cg2d: Sum(rhs),rhsMax =  -9.15688005420634E-08  9.46520519129246E+00
 cg2d: Sum(rhs),rhsMax =  -9.15879354579374E-08  9.46325027783096E+00
 cg2d: Sum(rhs),rhsMax =  -9.16070561629567E-08  9.46127510172983E+00
 cg2d: Sum(rhs),rhsMax =  -9.16269016215665E-08  9.45928736176468E+00
 cg2d: Sum(rhs),rhsMax =  -9.16458375854745E-08  9.45729384446051E+00
 cg2d: Sum(rhs),rhsMax =  -9.16652354021608E-08  9.45530032221759E+00
 cg2d: Sum(rhs),rhsMax =  -9.16847469056847E-08  9.45331147339530E+00
 cg2d: Sum(rhs),rhsMax =  -9.17041660386531E-08  9.45133082537812E+00
 cg2d: Sum(rhs),rhsMax =  -9.17234714847837E-08  9.44936073119909E+00
 cg2d: Sum(rhs),rhsMax =  -9.17423008672813E-08  9.44740238220463E+00
 cg2d: Sum(rhs),rhsMax =  -9.17614002560185E-08  9.44545585645758E+00
 cg2d: Sum(rhs),rhsMax =  -9.17801870059520E-08  9.44352020252140E+00
 cg2d: Sum(rhs),rhsMax =  -9.17989737558855E-08  9.44159355733174E+00
 cg2d: Sum(rhs),rhsMax =  -9.18179097197935E-08  9.43967327626014E+00
 cg2d: Sum(rhs),rhsMax =  -9.18367177860091E-08  9.43775607395104E+00
 cg2d: Sum(rhs),rhsMax =  -9.18552629514124E-08  9.43583817490269E+00
 cg2d: Sum(rhs),rhsMax =  -9.18742912858761E-08  9.43391546318717E+00
 cg2d: Sum(rhs),rhsMax =  -9.18933977800407E-08  9.43198362529795E+00
 cg2d: Sum(rhs),rhsMax =  -9.19123053222393E-08  9.43003828806143E+00
 cg2d: Sum(rhs),rhsMax =  -9.19319091963189E-08  9.42807514245689E+00
 cg2d: Sum(rhs),rhsMax =  -9.19516196518089E-08  9.42609005034801E+00
 cg2d: Sum(rhs),rhsMax =  -9.19711453661876E-08  9.42407914155286E+00
 cg2d: Sum(rhs),rhsMax =  -9.19916374186869E-08  9.42203890101561E+00
 cg2d: Sum(rhs),rhsMax =  -9.20122005254598E-08  9.41996625280574E+00
 cg2d: Sum(rhs),rhsMax =  -9.20328773190704E-08  9.41785862954787E+00
 cg2d: Sum(rhs),rhsMax =  -9.20541722848611E-08  9.41571402403211E+00
 cg2d: Sum(rhs),rhsMax =  -9.20761920042423E-08  9.41353104362712E+00
 cg2d: Sum(rhs),rhsMax =  -9.20975224971698E-08  9.41130897700722E+00
 cg2d: Sum(rhs),rhsMax =  -9.21202243375774E-08  9.40904782014454E+00
 cg2d: Sum(rhs),rhsMax =  -9.21427556477283E-08  9.40674826682519E+00
 cg2d: Sum(rhs),rhsMax =  -9.21658624974953E-08  9.40441167656376E+00
 cg2d: Sum(rhs),rhsMax =  -9.21897651551262E-08  9.40204003109270E+00
 cg2d: Sum(rhs),rhsMax =  -9.22136393910478E-08  9.39963588692061E+00
 cg2d: Sum(rhs),rhsMax =  -9.22377765277815E-08  9.39720232327049E+00
 cg2d: Sum(rhs),rhsMax =  -9.22617147125493E-08  9.39474287623570E+00
 cg2d: Sum(rhs),rhsMax =  -9.22866476571471E-08  9.39226147078604E+00
 EXTERNAL_FIELDS_LOAD, it=   3600390 : Reading new data, i0,i1=    7    8 (prev=    6    7 )
 DIC_FIELDS_LOAD, it=   3600390 : Reading new data, i0,i1=    7    8 (prev=    6    7 )
 cg2d: Sum(rhs),rhsMax =  -9.23120353490958E-08  9.38976233427929E+00
 cg2d: Sum(rhs),rhsMax =  -9.23369185557021E-08  9.38724381347799E+00
 cg2d: Sum(rhs),rhsMax =  -9.23620930848301E-08  9.38470550458213E+00
 cg2d: Sum(rhs),rhsMax =  -9.23878431535741E-08  9.38214640732935E+00
 cg2d: Sum(rhs),rhsMax =  -9.24133303215058E-08  9.37956498127073E+00
 cg2d: Sum(rhs),rhsMax =  -9.24395564538827E-08  9.37695924403383E+00
 cg2d: Sum(rhs),rhsMax =  -9.24659673273709E-08  9.37432689628576E+00
 cg2d: Sum(rhs),rhsMax =  -9.24926268908166E-08  9.37166545130188E+00
 cg2d: Sum(rhs),rhsMax =  -9.25199330481519E-08  9.36897236493602E+00
 cg2d: Sum(rhs),rhsMax =  -9.25472107837777E-08  9.36624514198210E+00
 cg2d: Sum(rhs),rhsMax =  -9.25749148450450E-08  9.36348144222541E+00
 cg2d: Sum(rhs),rhsMax =  -9.26027894365689E-08  9.36067916467522E+00
 cg2d: Sum(rhs),rhsMax =  -9.26316801042049E-08  9.35783651518778E+00
 cg2d: Sum(rhs),rhsMax =  -9.26604357687211E-08  9.35495205473915E+00
 cg2d: Sum(rhs),rhsMax =  -9.26899872411013E-08  9.35202472862356E+00
 cg2d: Sum(rhs),rhsMax =  -9.27198087197212E-08  9.34905386050751E+00
 cg2d: Sum(rhs),rhsMax =  -9.27502270542391E-08  9.34603912446753E+00
 cg2d: Sum(rhs),rhsMax =  -9.27809580275607E-08  9.34298052032945E+00
 cg2d: Sum(rhs),rhsMax =  -9.28122148025068E-08  9.33987837125357E+00
 cg2d: Sum(rhs),rhsMax =  -9.28438836922396E-08  9.33673332003228E+00
 cg2d: Sum(rhs),rhsMax =  -9.28756591633828E-08  9.33354631509102E+00
 cg2d: Sum(rhs),rhsMax =  -9.29085999246126E-08  9.33031856217985E+00
 cg2d: Sum(rhs),rhsMax =  -9.29414056827227E-08  9.32705144157814E+00
 cg2d: Sum(rhs),rhsMax =  -9.29742824951063E-08  9.32374640924821E+00
 cg2d: Sum(rhs),rhsMax =  -9.30079835370634E-08  9.32040491207867E+00
 cg2d: Sum(rhs),rhsMax =  -9.30417982658582E-08  9.31702830536998E+00
 cg2d: Sum(rhs),rhsMax =  -9.30764798567907E-08  9.31361778906816E+00
 cg2d: Sum(rhs),rhsMax =  -9.31104011669959E-08  9.31017435680010E+00
 cg2d: Sum(rhs),rhsMax =  -9.31454593455783E-08  9.30669874783390E+00
 cg2d: Sum(rhs),rhsMax =  -9.31809367443748E-08  9.30319140183628E+00
 cg2d: Sum(rhs),rhsMax =  -9.32159238686836E-08  9.29965242032067E+00
 cg2d: Sum(rhs),rhsMax =  -9.32518702256857E-08  9.29608155387300E+00
 cg2d: Sum(rhs),rhsMax =  -9.32883352788849E-08  9.29247816276956E+00
 cg2d: Sum(rhs),rhsMax =  -9.33245232204172E-08  9.28884120452690E+00
 cg2d: Sum(rhs),rhsMax =  -9.33613577558390E-08  9.28516924951164E+00
 cg2d: Sum(rhs),rhsMax =  -9.33982562401070E-08  9.28146051649491E+00
 cg2d: Sum(rhs),rhsMax =  -9.34364479121541E-08  9.27771291851975E+00
 cg2d: Sum(rhs),rhsMax =  -9.34740143065937E-08  9.27392411497484E+00
 cg2d: Sum(rhs),rhsMax =  -9.35126251988549E-08  9.27009157616147E+00
 cg2d: Sum(rhs),rhsMax =  -9.35518329470142E-08  9.26621266064052E+00
 cg2d: Sum(rhs),rhsMax =  -9.35912964905583E-08  9.26228469753356E+00
 cg2d: Sum(rhs),rhsMax =  -9.36311082000429E-08  9.25830502540661E+00
 cg2d: Sum(rhs),rhsMax =  -9.36718080879473E-08  9.25427104022615E+00
 cg2d: Sum(rhs),rhsMax =  -9.37130835154676E-08  9.25018025806528E+00
 cg2d: Sum(rhs),rhsMax =  -9.37547639523473E-08  9.24603037476154E+00
 cg2d: Sum(rhs),rhsMax =  -9.37974888870485E-08  9.24181932462259E+00
 cg2d: Sum(rhs),rhsMax =  -9.38402919814507E-08  9.23754533703139E+00
 cg2d: Sum(rhs),rhsMax =  -9.38843172093584E-08  9.23320698439808E+00
 cg2d: Sum(rhs),rhsMax =  -9.39290814017113E-08  9.22880321317793E+00
 cg2d: Sum(rhs),rhsMax =  -9.39739734917566E-08  9.22433335164241E+00
 cg2d: Sum(rhs),rhsMax =  -9.40200521881707E-08  9.21979710173837E+00
 cg2d: Sum(rhs),rhsMax =  -9.40667135296280E-08  9.21519452384442E+00
 cg2d: Sum(rhs),rhsMax =  -9.41140712029664E-08  9.21052602027441E+00
 cg2d: Sum(rhs),rhsMax =  -9.41621181027585E-08  9.20579231856880E+00
 cg2d: Sum(rhs),rhsMax =  -9.42108115964402E-08  9.20099445172383E+00
 cg2d: Sum(rhs),rhsMax =  -9.42603506359774E-08  9.19613373409314E+00
 cg2d: Sum(rhs),rhsMax =  -9.43106570616692E-08  9.19121172891709E+00
 cg2d: Sum(rhs),rhsMax =  -9.43619582471911E-08  9.18623021276131E+00
 cg2d: Sum(rhs),rhsMax =  -9.44129254776271E-08  9.18119115032627E+00
 cg2d: Sum(rhs),rhsMax =  -9.44648874678933E-08  9.17609666859133E+00
 EXTERNAL_FIELDS_LOAD, it=   3600450 : Reading new data, i0,i1=    8    9 (prev=    7    8 )
 DIC_FIELDS_LOAD, it=   3600450 : Reading new data, i0,i1=    8    9 (prev=    7    8 )
 cg2d: Sum(rhs),rhsMax =  -9.45180929079470E-08  9.17094900539886E+00
 cg2d: Sum(rhs),rhsMax =  -9.45713196642828E-08  9.16576037761048E+00
 cg2d: Sum(rhs),rhsMax =  -9.46249869571147E-08  9.16053907873528E+00
 cg2d: Sum(rhs),rhsMax =  -9.46787679367844E-08  9.15529303788953E+00
 cg2d: Sum(rhs),rhsMax =  -9.47327123412833E-08  9.15002961005962E+00
 cg2d: Sum(rhs),rhsMax =  -9.47873814993727E-08  9.14475542293395E+00
 cg2d: Sum(rhs),rhsMax =  -9.48415888046839E-08  9.13947626776025E+00
 cg2d: Sum(rhs),rhsMax =  -9.48963148061921E-08  9.13419703804716E+00
 cg2d: Sum(rhs),rhsMax =  -9.49505718494947E-08  9.12892171232682E+00
 cg2d: Sum(rhs),rhsMax =  -9.50055820680973E-08  9.12365335338700E+00
 cg2d: Sum(rhs),rhsMax =  -9.50602441207593E-08  9.11839411243203E+00
 cg2d: Sum(rhs),rhsMax =  -9.51149274897034E-08  9.11314523538299E+00
 cg2d: Sum(rhs),rhsMax =  -9.51689713701853E-08  9.10790707134369E+00
 cg2d: Sum(rhs),rhsMax =  -9.52241663298992E-08  9.10267908920085E+00
 cg2d: Sum(rhs),rhsMax =  -9.52785583763216E-08  9.09745990818067E+00
 cg2d: Sum(rhs),rhsMax =  -9.53332346398383E-08  9.09224734512777E+00
 cg2d: Sum(rhs),rhsMax =  -9.53879322196372E-08  9.08703847736888E+00
 cg2d: Sum(rhs),rhsMax =  -9.54423811094784E-08  9.08182972075513E+00
 cg2d: Sum(rhs),rhsMax =  -9.54974623823546E-08  9.07661692347198E+00
 cg2d: Sum(rhs),rhsMax =  -9.55527141854873E-08  9.07139547821490E+00
 cg2d: Sum(rhs),rhsMax =  -9.56078878289190E-08  9.06616045270155E+00
 cg2d: Sum(rhs),rhsMax =  -9.56632462134621E-08  9.06090673305150E+00
 cg2d: Sum(rhs),rhsMax =  -9.57190593453561E-08  9.05562917574046E+00
 cg2d: Sum(rhs),rhsMax =  -9.57753982788745E-08  9.05032276301453E+00
 cg2d: Sum(rhs),rhsMax =  -9.58323127520089E-08  9.04498274779792E+00
 cg2d: Sum(rhs),rhsMax =  -9.58890566948867E-08  9.03960479010611E+00
 cg2d: Sum(rhs),rhsMax =  -9.59469090844323E-08  9.03418508103277E+00
 cg2d: Sum(rhs),rhsMax =  -9.60046975251316E-08  9.02872044807494E+00
 cg2d: Sum(rhs),rhsMax =  -9.60634949365158E-08  9.02320843719522E+00
 cg2d: Sum(rhs),rhsMax =  -9.61234505325592E-08  9.01764736350553E+00
 cg2d: Sum(rhs),rhsMax =  -9.61829158541150E-08  9.01203632711249E+00
 cg2d: Sum(rhs),rhsMax =  -9.62436175200310E-08  9.00637519234014E+00
 cg2d: Sum(rhs),rhsMax =  -9.63047241953063E-08  9.00066454100738E+00
 cg2d: Sum(rhs),rhsMax =  -9.63663566722062E-08  8.99490560644289E+00
 cg2d: Sum(rhs),rhsMax =  -9.64286215321408E-08  8.98910019830229E+00
 cg2d: Sum(rhs),rhsMax =  -9.64914832479735E-08  8.98325060608421E+00
 cg2d: Sum(rhs),rhsMax =  -9.65549631359863E-08  8.97735949860674E+00
 cg2d: Sum(rhs),rhsMax =  -9.66191180395981E-08  8.97142982445055E+00
 cg2d: Sum(rhs),rhsMax =  -9.66832942594920E-08  8.96546471599943E+00
 cg2d: Sum(rhs),rhsMax =  -9.67482520763951E-08  8.95946740124540E+00
 cg2d: Sum(rhs),rhsMax =  -9.68132098932983E-08  8.95344112713886E+00
 cg2d: Sum(rhs),rhsMax =  -9.68790274669118E-08  8.94738909112794E+00
 cg2d: Sum(rhs),rhsMax =  -9.69447810916790E-08  8.94131438207753E+00
 cg2d: Sum(rhs),rhsMax =  -9.70111884157632E-08  8.93521991327319E+00
 cg2d: Sum(rhs),rhsMax =  -9.70773115227530E-08  8.92910833888471E+00
 cg2d: Sum(rhs),rhsMax =  -9.71445075492738E-08  8.92298199747039E+00
 cg2d: Sum(rhs),rhsMax =  -9.72113554098541E-08  8.91684290726808E+00
 cg2d: Sum(rhs),rhsMax =  -9.72787574937684E-08  8.91069264633776E+00
 cg2d: Sum(rhs),rhsMax =  -9.73459535202892E-08  8.90453228797114E+00
 cg2d: Sum(rhs),rhsMax =  -9.74135971887335E-08  8.89836249714105E+00
 cg2d: Sum(rhs),rhsMax =  -9.74817027099562E-08  8.89218368115518E+00
 cg2d: Sum(rhs),rhsMax =  -9.75496519117769E-08  8.88599608996445E+00
 cg2d: Sum(rhs),rhsMax =  -9.76179350686834E-08  8.87979980032782E+00
 cg2d: Sum(rhs),rhsMax =  -9.76860476953334E-08  8.87359466021019E+00
 cg2d: Sum(rhs),rhsMax =  -9.77549490244201E-08  8.86737992136571E+00
 cg2d: Sum(rhs),rhsMax =  -9.78237792992331E-08  8.86115449881272E+00
 cg2d: Sum(rhs),rhsMax =  -9.78925882577641E-08  8.85491714939279E+00
 cg2d: Sum(rhs),rhsMax =  -9.79620651264668E-08  8.84866650814923E+00
 cg2d: Sum(rhs),rhsMax =  -9.80318830556826E-08  8.84239908862083E+00
 cg2d: Sum(rhs),rhsMax =  -9.81016583523342E-08  8.83611205511795E+00
 EXTERNAL_FIELDS_LOAD, it=   3600510 : Reading new data, i0,i1=    9   10 (prev=    8    9 )
 DIC_FIELDS_LOAD, it=   3600510 : Reading new data, i0,i1=    9   10 (prev=    8    9 )
 cg2d: Sum(rhs),rhsMax =  -9.81721868242857E-08  8.82980306034887E+00
 cg2d: Sum(rhs),rhsMax =  -9.82427721396562E-08  8.82347164349139E+00
 cg2d: Sum(rhs),rhsMax =  -9.83135990395567E-08  8.81711735596894E+00
 cg2d: Sum(rhs),rhsMax =  -9.83851720093298E-08  8.81074020360017E+00
 cg2d: Sum(rhs),rhsMax =  -9.84564962891454E-08  8.80434063629974E+00
 cg2d: Sum(rhs),rhsMax =  -9.85286376931072E-08  8.79791959804717E+00
 cg2d: Sum(rhs),rhsMax =  -9.86011414738641E-08  8.79147850051498E+00
 cg2d: Sum(rhs),rhsMax =  -9.86734960406466E-08  8.78501923806664E+00
 cg2d: Sum(rhs),rhsMax =  -9.87464900958912E-08  8.77854412431977E+00
 cg2d: Sum(rhs),rhsMax =  -9.88197470519481E-08  8.77205585109022E+00
 cg2d: Sum(rhs),rhsMax =  -9.88934729662105E-08  8.76555740298602E+00
 cg2d: Sum(rhs),rhsMax =  -9.89669146633787E-08  8.75905198910442E+00
 cg2d: Sum(rhs),rhsMax =  -9.90407258427695E-08  8.75254295465281E+00
 cg2d: Sum(rhs),rhsMax =  -9.91145014950234E-08  8.74603368964057E+00
 cg2d: Sum(rhs),rhsMax =  -9.91886466295000E-08  8.73952755244439E+00
 cg2d: Sum(rhs),rhsMax =  -9.92623157003436E-08  8.73302782624689E+00
 cg2d: Sum(rhs),rhsMax =  -9.93363400425551E-08  8.72653766294564E+00
 cg2d: Sum(rhs),rhsMax =  -9.94104141227581E-08  8.72006002219781E+00
 cg2d: Sum(rhs),rhsMax =  -9.94844668866790E-08  8.71359759621992E+00
 cg2d: Sum(rhs),rhsMax =  -9.95583775420528E-08  8.70715278372291E+00
 cg2d: Sum(rhs),rhsMax =  -9.96322597757171E-08  8.70072771032166E+00
 cg2d: Sum(rhs),rhsMax =  -9.97059714791249E-08  8.69432422374462E+00
 cg2d: Sum(rhs),rhsMax =  -9.97792923840279E-08  8.68794392220557E+00
 cg2d: Sum(rhs),rhsMax =  -9.98527127649140E-08  8.68159287495532E+00
 cg2d: Sum(rhs),rhsMax =  -9.99256144496030E-08  8.67527594836007E+00
 cg2d: Sum(rhs),rhsMax =  -9.99983740257449E-08  8.66899648662334E+00
 cg2d: Sum(rhs),rhsMax =  -1.00070764119664E-07  8.66275674813775E+00
 cg2d: Sum(rhs),rhsMax =  -1.00142791836788E-07  8.65655808426570E+00
 cg2d: Sum(rhs),rhsMax =  -1.00214123222031E-07  8.65040095427649E+00
 cg2d: Sum(rhs),rhsMax =  -1.00285419080137E-07  8.64428511771589E+00
 cg2d: Sum(rhs),rhsMax =  -1.00356203347474E-07  8.63820779072895E+00
 cg2d: Sum(rhs),rhsMax =  -1.00426881033400E-07  8.63216610266613E+00
 cg2d: Sum(rhs),rhsMax =  -1.00497182131676E-07  8.62615664857018E+00
 cg2d: Sum(rhs),rhsMax =  -1.00566929006618E-07  8.62017549344574E+00
 cg2d: Sum(rhs),rhsMax =  -1.00636839306389E-07  8.61421824973427E+00
 cg2d: Sum(rhs),rhsMax =  -1.00706515127058E-07  8.60828014305759E+00
 cg2d: Sum(rhs),rhsMax =  -1.00776318845419E-07  8.60235619466164E+00
 cg2d: Sum(rhs),rhsMax =  -1.00845916506387E-07  8.59644141396147E+00
 cg2d: Sum(rhs),rhsMax =  -1.00915485745645E-07  8.59053104903554E+00
 cg2d: Sum(rhs),rhsMax =  -1.00985261042297E-07  8.58462072248315E+00
 cg2d: Sum(rhs),rhsMax =  -1.01055491086299E-07  8.57870663714626E+00
 cg2d: Sum(rhs),rhsMax =  -1.01125422702353E-07  8.57278566865890E+00
 cg2d: Sum(rhs),rhsMax =  -1.01195716695202E-07  8.56685532083521E+00
 cg2d: Sum(rhs),rhsMax =  -1.01266216745444E-07  8.56091374139585E+00
 cg2d: Sum(rhs),rhsMax =  -1.01337192859319E-07  8.55495975914983E+00
 cg2d: Sum(rhs),rhsMax =  -1.01408346608878E-07  8.54899275863313E+00
 cg2d: Sum(rhs),rhsMax =  -1.01479535885574E-07  8.54301265247851E+00
 cg2d: Sum(rhs),rhsMax =  -1.01551435705005E-07  8.53701978569626E+00
 cg2d: Sum(rhs),rhsMax =  -1.01622724457684E-07  8.53101490472480E+00
 cg2d: Sum(rhs),rhsMax =  -1.01695292187287E-07  8.52499919193590E+00
 cg2d: Sum(rhs),rhsMax =  -1.01767554383514E-07  8.51897431341724E+00
 cg2d: Sum(rhs),rhsMax =  -1.01840242905382E-07  8.51294235247767E+00
 cg2d: Sum(rhs),rhsMax =  -1.01912846162122E-07  8.50690569200869E+00
 cg2d: Sum(rhs),rhsMax =  -1.01985413891725E-07  8.50087005576702E+00
 cg2d: Sum(rhs),rhsMax =  -1.02058450579534E-07  8.49484015017416E+00
 cg2d: Sum(rhs),rhsMax =  -1.02131188839394E-07  8.48882063673028E+00
 cg2d: Sum(rhs),rhsMax =  -1.02203856044980E-07  8.48281607441673E+00
 cg2d: Sum(rhs),rhsMax =  -1.02276672464541E-07  8.47683086082370E+00
 cg2d: Sum(rhs),rhsMax =  -1.02349595465512E-07  8.47086915096995E+00
 cg2d: Sum(rhs),rhsMax =  -1.02421360281824E-07  8.46493476809303E+00
 EXTERNAL_FIELDS_LOAD, it=   3600570 : Reading new data, i0,i1=   10   11 (prev=    9   10 )
 DIC_FIELDS_LOAD, it=   3600570 : Reading new data, i0,i1=   10   11 (prev=    9   10 )
 cg2d: Sum(rhs),rhsMax =  -1.02493515896640E-07  8.45903109783263E+00
 cg2d: Sum(rhs),rhsMax =  -1.02564975179575E-07  8.45319648993583E+00
 cg2d: Sum(rhs),rhsMax =  -1.02634501786270E-07  8.44745634270964E+00
 cg2d: Sum(rhs),rhsMax =  -1.02703893389844E-07  8.44183524325516E+00
 cg2d: Sum(rhs),rhsMax =  -1.02770819410125E-07  8.43635626330932E+00
 cg2d: Sum(rhs),rhsMax =  -1.02836231974379E-07  8.43104036727980E+00
 cg2d: Sum(rhs),rhsMax =  -1.02899214482477E-07  8.42590597581903E+00
 cg2d: Sum(rhs),rhsMax =  -1.02960150627496E-07  8.42096861540595E+00
 cg2d: Sum(rhs),rhsMax =  -1.03018727770632E-07  8.41624063283881E+00
 cg2d: Sum(rhs),rhsMax =  -1.03074462742825E-07  8.41173099284368E+00
 cg2d: Sum(rhs),rhsMax =  -1.03127582917750E-07  8.40744522364360E+00
 cg2d: Sum(rhs),rhsMax =  -1.03177704602331E-07  8.40338548638234E+00
 cg2d: Sum(rhs),rhsMax =  -1.03225289649345E-07  8.39955071057647E+00
 cg2d: Sum(rhs),rhsMax =  -1.03270444640202E-07  8.39593686353065E+00
 cg2d: Sum(rhs),rhsMax =  -1.03312800092681E-07  8.39253726007720E+00
 cg2d: Sum(rhs),rhsMax =  -1.03352554958747E-07  8.38934286490718E+00
 cg2d: Sum(rhs),rhsMax =  -1.03389886874083E-07  8.38634267692018E+00
 cg2d: Sum(rhs),rhsMax =  -1.03425186637196E-07  8.38352418466840E+00
 cg2d: Sum(rhs),rhsMax =  -1.03458575040349E-07  8.38087384792736E+00
 cg2d: Sum(rhs),rhsMax =  -1.03489654179612E-07  8.37837764295235E+00
 cg2d: Sum(rhs),rhsMax =  -1.03519347760539E-07  8.37602165023152E+00
 cg2d: Sum(rhs),rhsMax =  -1.03547364460610E-07  8.37379265495454E+00
 cg2d: Sum(rhs),rhsMax =  -1.03573896126363E-07  8.37167859305842E+00
 cg2d: Sum(rhs),rhsMax =  -1.03599155920620E-07  8.36966841617237E+00
 cg2d: Sum(rhs),rhsMax =  -1.03623357006200E-07  8.36775262363169E+00
 cg2d: Sum(rhs),rhsMax =  -1.03646584648232E-07  8.36592322530019E+00
 cg2d: Sum(rhs),rhsMax =  -1.03668426731929E-07  8.36417370361670E+00
 cg2d: Sum(rhs),rhsMax =  -1.03689806962848E-07  8.36249893566327E+00
 cg2d: Sum(rhs),rhsMax =  -1.03710164012227E-07  8.36089512198643E+00
 cg2d: Sum(rhs),rhsMax =  -1.03729064448999E-07  8.35935972193128E+00
 cg2d: Sum(rhs),rhsMax =  -1.03747986202052E-07  8.35789132052859E+00
 cg2d: Sum(rhs),rhsMax =  -1.03765373182796E-07  8.35648953984663E+00
 cg2d: Sum(rhs),rhsMax =  -1.03782369365035E-07  8.35515503666620E+00
 cg2d: Sum(rhs),rhsMax =  -1.03798733164240E-07  8.35388959337713E+00
 cg2d: Sum(rhs),rhsMax =  -1.03813491136862E-07  8.35269612989214E+00
 cg2d: Sum(rhs),rhsMax =  -1.03827638042731E-07  8.35157865319166E+00
 cg2d: Sum(rhs),rhsMax =  -1.03841280463257E-07  8.35054220321588E+00
 cg2d: Sum(rhs),rhsMax =  -1.03853331268056E-07  8.34959282244478E+00
 cg2d: Sum(rhs),rhsMax =  -1.03864024936229E-07  8.34873757212784E+00
 cg2d: Sum(rhs),rhsMax =  -1.03873794898846E-07  8.34798443944571E+00
 cg2d: Sum(rhs),rhsMax =  -1.03881951929452E-07  8.34734205444848E+00
 cg2d: Sum(rhs),rhsMax =  -1.03888730507151E-07  8.34681927427749E+00
 cg2d: Sum(rhs),rhsMax =  -1.03893782466002E-07  8.34642479662444E+00
 cg2d: Sum(rhs),rhsMax =  -1.03896695691219E-07  8.34616690162161E+00
 cg2d: Sum(rhs),rhsMax =  -1.03898251779810E-07  8.34605328416144E+00
 cg2d: Sum(rhs),rhsMax =  -1.03897747294468E-07  8.34609086201575E+00
 cg2d: Sum(rhs),rhsMax =  -1.03895416714295E-07  8.34628560159372E+00
 cg2d: Sum(rhs),rhsMax =  -1.03891132141598E-07  8.34664238294981E+00
 cg2d: Sum(rhs),rhsMax =  -1.03884730151549E-07  8.34716488141953E+00
 cg2d: Sum(rhs),rhsMax =  -1.03876232060429E-07  8.34785544920597E+00
 cg2d: Sum(rhs),rhsMax =  -1.03865339440290E-07  8.34871504733891E+00
 cg2d: Sum(rhs),rhsMax =  -1.03852393351644E-07  8.34974320296400E+00
 cg2d: Sum(rhs),rhsMax =  -1.03837578535604E-07  8.35093803633076E+00
 cg2d: Sum(rhs),rhsMax =  -1.03820866570459E-07  8.35229628921908E+00
 cg2d: Sum(rhs),rhsMax =  -1.03801575335183E-07  8.35381348895399E+00
 cg2d: Sum(rhs),rhsMax =  -1.03780770643880E-07  8.35548405560547E+00
 cg2d: Sum(rhs),rhsMax =  -1.03758168279455E-07  8.35730145035772E+00
 cg2d: Sum(rhs),rhsMax =  -1.03734052459004E-07  8.35925834161856E+00
 cg2d: Sum(rhs),rhsMax =  -1.03707641585515E-07  8.36134677020027E+00
 cg2d: Sum(rhs),rhsMax =  -1.03680264373907E-07  8.36355833544679E+00
 EXTERNAL_FIELDS_LOAD, it=   3600630 : Reading new data, i0,i1=   11   12 (prev=   10   11 )
 DIC_FIELDS_LOAD, it=   3600630 : Reading new data, i0,i1=   11   12 (prev=   10   11 )
 cg2d: Sum(rhs),rhsMax =  -1.03651167648877E-07  8.36588437297216E+00
 cg2d: Sum(rhs),rhsMax =  -1.03620983793462E-07  8.36829873825493E+00
 cg2d: Sum(rhs),rhsMax =  -1.03590167555012E-07  8.37078098256463E+00
 cg2d: Sum(rhs),rhsMax =  -1.03558832620365E-07  8.37331076990736E+00
 cg2d: Sum(rhs),rhsMax =  -1.03526986094948E-07  8.37586828475342E+00
 cg2d: Sum(rhs),rhsMax =  -1.03494969039275E-07  8.37843651347270E+00
 cg2d: Sum(rhs),rhsMax =  -1.03462959089029E-07  8.38100058596186E+00
 cg2d: Sum(rhs),rhsMax =  -1.03431759157502E-07  8.38354800119352E+00
 cg2d: Sum(rhs),rhsMax =  -1.03400431328282E-07  8.38606907281455E+00
 cg2d: Sum(rhs),rhsMax =  -1.03369536930131E-07  8.38855705740912E+00
 cg2d: Sum(rhs),rhsMax =  -1.03339182544460E-07  8.39100818777902E+00
 cg2d: Sum(rhs),rhsMax =  -1.03309091059600E-07  8.39342162927294E+00
 cg2d: Sum(rhs),rhsMax =  -1.03279326424399E-07  8.39579937673915E+00
 cg2d: Sum(rhs),rhsMax =  -1.03250158645096E-07  8.39814606298476E+00
 cg2d: Sum(rhs),rhsMax =  -1.03221587721691E-07  8.40046867037939E+00
 cg2d: Sum(rhs),rhsMax =  -1.03192640210636E-07  8.40277617859981E+00
 cg2d: Sum(rhs),rhsMax =  -1.03164317977189E-07  8.40507915533000E+00
 cg2d: Sum(rhs),rhsMax =  -1.03135583628955E-07  8.40738929078001E+00
 cg2d: Sum(rhs),rhsMax =  -1.03106465587643E-07  8.40971893982490E+00
 cg2d: Sum(rhs),rhsMax =  -1.03077603341717E-07  8.41208069021930E+00
 cg2d: Sum(rhs),rhsMax =  -1.03047760546815E-07  8.41448664736628E+00
 cg2d: Sum(rhs),rhsMax =  -1.03017328001442E-07  8.41694808963461E+00
 cg2d: Sum(rhs),rhsMax =  -1.02985850958248E-07  8.41947641344255E+00
 cg2d: Sum(rhs),rhsMax =  -1.02953762848301E-07  8.42209465677943E+00
 cg2d: Sum(rhs),rhsMax =  -1.02920779454507E-07  8.42481840011152E+00
 cg2d: Sum(rhs),rhsMax =  -1.02885756803062E-07  8.42766143831664E+00
 cg2d: Sum(rhs),rhsMax =  -1.02849760708068E-07  8.43063562227923E+00
 cg2d: Sum(rhs),rhsMax =  -1.02811505087175E-07  8.43375048923612E+00
 cg2d: Sum(rhs),rhsMax =  -1.02771743115682E-07  8.43701312183894E+00
 cg2d: Sum(rhs),rhsMax =  -1.02730268736195E-07  8.44042805498092E+00
 cg2d: Sum(rhs),rhsMax =  -1.02686364300553E-07  8.44399728026233E+00
 cg2d: Sum(rhs),rhsMax =  -1.02641237731405E-07  8.44772028674299E+00
 cg2d: Sum(rhs),rhsMax =  -1.02594057693750E-07  8.45159419183708E+00
 cg2d: Sum(rhs),rhsMax =  -1.02545079982974E-07  8.45561389463918E+00
 cg2d: Sum(rhs),rhsMax =  -1.02494418285914E-07  8.45977229544668E+00
 cg2d: Sum(rhs),rhsMax =  -1.02442626825905E-07  8.46406043486096E+00
 cg2d: Sum(rhs),rhsMax =  -1.02389186906748E-07  8.46846786249842E+00
 cg2d: Sum(rhs),rhsMax =  -1.02334411167249E-07  8.47298294092153E+00
 cg2d: Sum(rhs),rhsMax =  -1.02278569613645E-07  8.47759310010859E+00
 cg2d: Sum(rhs),rhsMax =  -1.02221783038203E-07  8.48228511495217E+00
 cg2d: Sum(rhs),rhsMax =  -1.02164435134000E-07  8.48704540520819E+00
 cg2d: Sum(rhs),rhsMax =  -1.02106639587873E-07  8.49186038102640E+00
 cg2d: Sum(rhs),rhsMax =  -1.02048161920720E-07  8.49671683330553E+00
 cg2d: Sum(rhs),rhsMax =  -1.01989222400789E-07  8.50160229731839E+00
 cg2d: Sum(rhs),rhsMax =  -1.01930119456028E-07  8.50650541756349E+00
 cg2d: Sum(rhs),rhsMax =  -1.01871734159431E-07  8.51141606286167E+00
 cg2d: Sum(rhs),rhsMax =  -1.01813114383731E-07  8.51632550458549E+00
 cg2d: Sum(rhs),rhsMax =  -1.01754352499484E-07  8.52122658728227E+00
 cg2d: Sum(rhs),rhsMax =  -1.01695938781177E-07  8.52611387363114E+00
 cg2d: Sum(rhs),rhsMax =  -1.01637908755947E-07  8.53098375482528E+00
 cg2d: Sum(rhs),rhsMax =  -1.01580091893538E-07  8.53583450654913E+00
 cg2d: Sum(rhs),rhsMax =  -1.01522516615660E-07  8.54066629803099E+00
 cg2d: Sum(rhs),rhsMax =  -1.01465325030858E-07  8.54548114840508E+00
 cg2d: Sum(rhs),rhsMax =  -1.01408510033707E-07  8.55028281355603E+00
 cg2d: Sum(rhs),rhsMax =  -1.01351844250530E-07  8.55507663782142E+00
 cg2d: Sum(rhs),rhsMax =  -1.01294901355686E-07  8.55986938569464E+00
 cg2d: Sum(rhs),rhsMax =  -1.01238242677937E-07  8.56466907941720E+00
 cg2d: Sum(rhs),rhsMax =  -1.01181711897880E-07  8.56948481849350E+00
 cg2d: Sum(rhs),rhsMax =  -1.01124427942523E-07  8.57432655386490E+00
 cg2d: Sum(rhs),rhsMax =  -1.01066994773191E-07  8.57920482306538E+00
 EXTERNAL_FIELDS_LOAD, it=   3600690 : Reading new data, i0,i1=   12    1 (prev=   11   12 )
 DIC_FIELDS_LOAD, it=   3600690 : Reading new data, i0,i1=   12    1 (prev=   11   12 )
 cg2d: Sum(rhs),rhsMax =  -1.01009099751082E-07  8.58413045456863E+00
 cg2d: Sum(rhs),rhsMax =  -1.00950970249869E-07  8.58908772075261E+00
 cg2d: Sum(rhs),rhsMax =  -1.00892201260194E-07  8.59407113784658E+00
 cg2d: Sum(rhs),rhsMax =  -1.00833979388426E-07  8.59907533504329E+00
 cg2d: Sum(rhs),rhsMax =  -1.00775366718153E-07  8.60409527812640E+00
 cg2d: Sum(rhs),rhsMax =  -1.00716533779632E-07  8.60912639608676E+00
 cg2d: Sum(rhs),rhsMax =  -1.00657807422522E-07  8.61416467727663E+00
 cg2d: Sum(rhs),rhsMax =  -1.00599194752249E-07  8.61920670304104E+00
 cg2d: Sum(rhs),rhsMax =  -1.00540219705181E-07  8.62424959025954E+00
 cg2d: Sum(rhs),rhsMax =  -1.00481713616318E-07  8.62929084710763E+00
 cg2d: Sum(rhs),rhsMax =  -1.00423278581729E-07  8.63432823431656E+00
 cg2d: Sum(rhs),rhsMax =  -1.00365085131671E-07  8.63935967110789E+00
 cg2d: Sum(rhs),rhsMax =  -1.00306984052168E-07  8.64438326330631E+00
 cg2d: Sum(rhs),rhsMax =  -1.00248698231553E-07  8.64939736363611E+00
 cg2d: Sum(rhs),rhsMax =  -1.00191144269957E-07  8.65440069908248E+00
 cg2d: Sum(rhs),rhsMax =  -1.00133568992078E-07  8.65939260929048E+00
 cg2d: Sum(rhs),rhsMax =  -1.00076100295610E-07  8.66437312037654E+00
 cg2d: Sum(rhs),rhsMax =  -1.00019036608501E-07  8.66934290835576E+00
 cg2d: Sum(rhs),rhsMax =  -9.99617597585711E-08  8.67430225124478E+00
 cg2d: Sum(rhs),rhsMax =  -9.99047102823170E-08  8.67925494682890E+00
 cg2d: Sum(rhs),rhsMax =  -9.98482363456787E-08  8.68420608713978E+00
 cg2d: Sum(rhs),rhsMax =  -9.97913716105359E-08  8.68916081980566E+00
 cg2d: Sum(rhs),rhsMax =  -9.97343434505638E-08  8.69412416784580E+00
 cg2d: Sum(rhs),rhsMax =  -9.96773295014464E-08  8.69910085245627E+00
 cg2d: Sum(rhs),rhsMax =  -9.96202871306195E-08  8.70409517445086E+00
 cg2d: Sum(rhs),rhsMax =  -9.95629250155616E-08  8.70911095741398E+00
 cg2d: Sum(rhs),rhsMax =  -9.95059110664442E-08  8.71415148969223E+00
 cg2d: Sum(rhs),rhsMax =  -9.94480160443345E-08  8.71921930590513E+00
 cg2d: Sum(rhs),rhsMax =  -9.93902702361993E-08  8.72431607432102E+00
 cg2d: Sum(rhs),rhsMax =  -9.93317215147727E-08  8.72944261226047E+00
 cg2d: Sum(rhs),rhsMax =  -9.92735280647139E-08  8.73459893266904E+00
 cg2d: Sum(rhs),rhsMax =  -9.92147448641845E-08  8.73978430818157E+00
 cg2d: Sum(rhs),rhsMax =  -9.91560966667748E-08  8.74499735837366E+00
 cg2d: Sum(rhs),rhsMax =  -9.90966526615011E-08  8.75023614706347E+00
 cg2d: Sum(rhs),rhsMax =  -9.90366970654577E-08  8.75549829188909E+00
 cg2d: Sum(rhs),rhsMax =  -9.89772743764661E-08  8.76078107848702E+00
 cg2d: Sum(rhs),rhsMax =  -9.89177024735000E-08  8.76608155580086E+00
 cg2d: Sum(rhs),rhsMax =  -9.88579742511320E-08  8.77139664107964E+00
 cg2d: Sum(rhs),rhsMax =  -9.87977060162848E-08  8.77672320795606E+00
 cg2d: Sum(rhs),rhsMax =  -9.87382264838743E-08  8.78205816635757E+00
(PID.TID 0000.0001) Did not write pickup because writePickupAtEnd = FALSE
 DIC_SURFFORCING_INIT, it=   3600000 : Reading new data, i0,i1=   12    1
 QQ: pCO2 approximation method
 QQ first guess pH 8.2869849781645275,  7.129213793781922,  34.1535348423009,  2.0282,  5.43799999999999991E-4,  8.08490416966378689E-3,  2.3086000000000002
(PID.TID 0000.0001) // =======================================================
(PID.TID 0000.0001) // Model current state
(PID.TID 0000.0001) // =======================================================
(PID.TID 0000.0001) 
 EXTERNAL_FIELDS_LOAD, it=   3600000 : Reading new data, i0,i1=   12    1 (prev=   12    0 )
 DIC_FIELDS_LOAD, it=   3600000 : Reading new data, i0,i1=   12    1 (prev=   12    0 )
 cg2d: Sum(rhs),rhsMax =  -9.92433868418630E-08  8.73439671821315E+00
 cg2d: Sum(rhs),rhsMax =  -9.91844260056496E-08  8.73957958587058E+00
 cg2d: Sum(rhs),rhsMax =  -9.91252449011881E-08  8.74478969091806E+00
 cg2d: Sum(rhs),rhsMax =  -9.90665185440776E-08  8.75002495477880E+00
 cg2d: Sum(rhs),rhsMax =  -9.90068542705558E-08  8.75528284057604E+00
 cg2d: Sum(rhs),rhsMax =  -9.89473534218632E-08  8.76056047500076E+00
 cg2d: Sum(rhs),rhsMax =  -9.88878241514612E-08  8.76585475900637E+00
 cg2d: Sum(rhs),rhsMax =  -9.88279893476829E-08  8.77116249138180E+00
 cg2d: Sum(rhs),rhsMax =  -9.87682469144602E-08  8.77648047471154E+00
 cg2d: Sum(rhs),rhsMax =  -9.87087602766223E-08  8.78180560756084E+00
 cg2d: Sum(rhs),rhsMax =  -9.86489112619893E-08  8.78713494778165E+00
 cg2d: Sum(rhs),rhsMax =  -9.85891404070571E-08  8.79246575399440E+00
 cg2d: Sum(rhs),rhsMax =  -9.85293340249882E-08  8.79779549299699E+00
 cg2d: Sum(rhs),rhsMax =  -9.84700747608258E-08  8.80312181092759E+00
 cg2d: Sum(rhs),rhsMax =  -9.84108581292276E-08  8.80844249631459E+00
 cg2d: Sum(rhs),rhsMax =  -9.83516486030567E-08  8.81375547068360E+00
 cg2d: Sum(rhs),rhsMax =  -9.82926522397065E-08  8.81905885446822E+00
 cg2d: Sum(rhs),rhsMax =  -9.82337553523394E-08  8.82435106608147E+00
 cg2d: Sum(rhs),rhsMax =  -9.81751568929212E-08  8.82963093738125E+00
 cg2d: Sum(rhs),rhsMax =  -9.81166650149135E-08  8.83489782452132E+00
 cg2d: Sum(rhs),rhsMax =  -9.80585213028462E-08  8.84015168145881E+00
 cg2d: Sum(rhs),rhsMax =  -9.80007470730015E-08  8.84539306572338E+00
 cg2d: Sum(rhs),rhsMax =  -9.79429586323022E-08  8.85062306296846E+00
 cg2d: Sum(rhs),rhsMax =  -9.78853904598509E-08  8.85584316140559E+00
 cg2d: Sum(rhs),rhsMax =  -9.78280425556477E-08  8.86105508303604E+00
 cg2d: Sum(rhs),rhsMax =  -9.77709291305473E-08  8.86626061391844E+00
 cg2d: Sum(rhs),rhsMax =  -9.77132472712583E-08  8.87146147123075E+00
 cg2d: Sum(rhs),rhsMax =  -9.76563327981239E-08  8.87665923110881E+00
 cg2d: Sum(rhs),rhsMax =  -9.75990843699037E-08  8.88185530584736E+00
 cg2d: Sum(rhs),rhsMax =  -9.75420704207863E-08  8.88705095973601E+00
 EXTERNAL_FIELDS_LOAD, it=   3600030 : Reading new data, i0,i1=    1    2 (prev=   12    1 )
 DIC_FIELDS_LOAD, it=   3600030 : Reading new data, i0,i1=    1    2 (prev=   12    1 )
 cg2d: Sum(rhs),rhsMax =  -9.74853406887632E-08  8.89224735691429E+00
 cg2d: Sum(rhs),rhsMax =  -9.74287814869967E-08  8.89742706375180E+00
 cg2d: Sum(rhs),rhsMax =  -9.73723857100595E-08  8.90258000132907E+00
 cg2d: Sum(rhs),rhsMax =  -9.73164659967551E-08  8.90769672951691E+00
 cg2d: Sum(rhs),rhsMax =  -9.72612284044772E-08  8.91276878246959E+00
 cg2d: Sum(rhs),rhsMax =  -9.72070637317302E-08  8.91778889429735E+00
 cg2d: Sum(rhs),rhsMax =  -9.71530482729577E-08  8.92275113682099E+00
 cg2d: Sum(rhs),rhsMax =  -9.70993241367069E-08  8.92765100404361E+00
 cg2d: Sum(rhs),rhsMax =  -9.70471916161841E-08  8.93248545016401E+00
 cg2d: Sum(rhs),rhsMax =  -9.69955280538670E-08  8.93725287491615E+00
 cg2d: Sum(rhs),rhsMax =  -9.69441273923621E-08  8.94195305183593E+00
 cg2d: Sum(rhs),rhsMax =  -9.68941833434656E-08  8.94658701582531E+00
 cg2d: Sum(rhs),rhsMax =  -9.68450208915783E-08  8.95115692214719E+00
 cg2d: Sum(rhs),rhsMax =  -9.67962705544778E-08  8.95566589123099E+00
 cg2d: Sum(rhs),rhsMax =  -9.67482165492584E-08  8.96011786358850E+00
 cg2d: Sum(rhs),rhsMax =  -9.67008020325011E-08  8.96451747891563E+00
 cg2d: Sum(rhs),rhsMax =  -9.66539346336504E-08  8.96886998187158E+00
 cg2d: Sum(rhs),rhsMax =  -9.66078843589457E-08  8.97318115409823E+00
 cg2d: Sum(rhs),rhsMax =  -9.65621254067628E-08  8.97745726495199E+00
 cg2d: Sum(rhs),rhsMax =  -9.65159685506478E-08  8.98170502198163E+00
 cg2d: Sum(rhs),rhsMax =  -9.64709272466280E-08  8.98593151889555E+00
 cg2d: Sum(rhs),rhsMax =  -9.64258006774799E-08  8.99014423145949E+00
 cg2d: Sum(rhs),rhsMax =  -9.63806954246138E-08  8.99435085408351E+00
 cg2d: Sum(rhs),rhsMax =  -9.63354978011921E-08  8.99855914272681E+00
 cg2d: Sum(rhs),rhsMax =  -9.62904493917449E-08  9.00277662786875E+00
 cg2d: Sum(rhs),rhsMax =  -9.62449746566563E-08  9.00700998220796E+00
 cg2d: Sum(rhs),rhsMax =  -9.61997557169525E-08  9.01126574761483E+00
 cg2d: Sum(rhs),rhsMax =  -9.61540180810516E-08  9.01555039729210E+00
 cg2d: Sum(rhs),rhsMax =  -9.61077120109621E-08  9.01986971435378E+00
 cg2d: Sum(rhs),rhsMax =  -9.60613775191632E-08  9.02422880815445E+00
 cg2d: Sum(rhs),rhsMax =  -9.60143182737738E-08  9.02863205182447E+00
 cg2d: Sum(rhs),rhsMax =  -9.59668398081703E-08  9.03308295193821E+00
 cg2d: Sum(rhs),rhsMax =  -9.59189492277801E-08  9.03758400719746E+00
 cg2d: Sum(rhs),rhsMax =  -9.58706323217484E-08  9.04213663854453E+00
 cg2d: Sum(rhs),rhsMax =  -9.58215622404168E-08  9.04674109185253E+00
 cg2d: Sum(rhs),rhsMax =  -9.57721724148541E-08  9.05139640217902E+00
 cg2d: Sum(rhs),rhsMax =  -9.57223775799321E-08  9.05610040614876E+00
 cg2d: Sum(rhs),rhsMax =  -9.56718224642827E-08  9.06084979109159E+00
 cg2d: Sum(rhs),rhsMax =  -9.56211039238042E-08  9.06564017672268E+00
 cg2d: Sum(rhs),rhsMax =  -9.55700798499493E-08  9.07046622792088E+00
 cg2d: Sum(rhs),rhsMax =  -9.55189918272481E-08  9.07532179655311E+00
 cg2d: Sum(rhs),rhsMax =  -9.54672145780933E-08  9.08020008054443E+00
 cg2d: Sum(rhs),rhsMax =  -9.54156860188959E-08  9.08509379067778E+00
 cg2d: Sum(rhs),rhsMax =  -9.53640864054250E-08  9.08999532389517E+00
 cg2d: Sum(rhs),rhsMax =  -9.53120391500306E-08  9.09489685062687E+00
 cg2d: Sum(rhs),rhsMax =  -9.52604963799786E-08  9.09979078670731E+00
 cg2d: Sum(rhs),rhsMax =  -9.52091738781746E-08  9.10466952325132E+00
 cg2d: Sum(rhs),rhsMax =  -9.51581995423112E-08  9.10952586151125E+00
 cg2d: Sum(rhs),rhsMax =  -9.51075378452515E-08  9.11435305322486E+00
 cg2d: Sum(rhs),rhsMax =  -9.50568974644739E-08  9.11914489544444E+00
 cg2d: Sum(rhs),rhsMax =  -9.50070173644235E-08  9.12389583482653E+00
 cg2d: Sum(rhs),rhsMax =  -9.49582670273230E-08  9.12860106773695E+00
 cg2d: Sum(rhs),rhsMax =  -9.49094669522310E-08  9.13325671324743E+00
 cg2d: Sum(rhs),rhsMax =  -9.48612637330370E-08  9.13785989332165E+00
 cg2d: Sum(rhs),rhsMax =  -9.48139060596986E-08  9.14240888612431E+00
 cg2d: Sum(rhs),rhsMax =  -9.47671381368309E-08  9.14690322805975E+00
 cg2d: Sum(rhs),rhsMax =  -9.47210025969980E-08  9.15134376400067E+00
 cg2d: Sum(rhs),rhsMax =  -9.46753857533622E-08  9.15573262291172E+00
 cg2d: Sum(rhs),rhsMax =  -9.46305078741716E-08  9.16007311317651E+00
 cg2d: Sum(rhs),rhsMax =  -9.45855020972886E-08  9.16436954661381E+00
 EXTERNAL_FIELDS_LOAD, it=   3600090 : Reading new data, i0,i1=    2    3 (prev=    1    2 )
 DIC_FIELDS_LOAD, it=   3600090 : Reading new data, i0,i1=    2    3 (prev=    1    2 )
 cg2d: Sum(rhs),rhsMax =  -9.45416047670733E-08  9.16862700792054E+00
 cg2d: Sum(rhs),rhsMax =  -9.44977784911316E-08  9.17286965792043E+00
 cg2d: Sum(rhs),rhsMax =  -9.44538882663437E-08  9.17711460232796E+00
 cg2d: Sum(rhs),rhsMax =  -9.44097777733077E-08  9.18137827264839E+00
 cg2d: Sum(rhs),rhsMax =  -9.43655606988614E-08  9.18567586102450E+00
 cg2d: Sum(rhs),rhsMax =  -9.43208533499273E-08  9.19002086507332E+00
 cg2d: Sum(rhs),rhsMax =  -9.42755065125311E-08  9.19442473147613E+00
 cg2d: Sum(rhs),rhsMax =  -9.42294988703907E-08  9.19889660310093E+00
 cg2d: Sum(rhs),rhsMax =  -9.41831217460276E-08  9.20344317156002E+00
 cg2d: Sum(rhs),rhsMax =  -9.41357711781166E-08  9.20806863385625E+00
 cg2d: Sum(rhs),rhsMax =  -9.40875679589226E-08  9.21277472508850E+00
 cg2d: Sum(rhs),rhsMax =  -9.40387323566938E-08  9.21756082935263E+00
 cg2d: Sum(rhs),rhsMax =  -9.39891506845925E-08  9.22242415169496E+00
 cg2d: Sum(rhs),rhsMax =  -9.39387589937724E-08  9.22735992735964E+00
 cg2d: Sum(rhs),rhsMax =  -9.38874578082505E-08  9.23236166048178E+00
 cg2d: Sum(rhs),rhsMax =  -9.38360713576003E-08  9.23742136926884E+00
 cg2d: Sum(rhs),rhsMax =  -9.37847204340869E-08  9.24252982829311E+00
 cg2d: Sum(rhs),rhsMax =  -9.37326518624104E-08  9.24767682825910E+00
 cg2d: Sum(rhs),rhsMax =  -9.36799651185538E-08  9.25285135651627E+00
 cg2d: Sum(rhs),rhsMax =  -9.36278468088858E-08  9.25804181556396E+00
 cg2d: Sum(rhs),rhsMax =  -9.35753803332773E-08  9.26323624437734E+00
 cg2d: Sum(rhs),rhsMax =  -9.35233543941649E-08  9.26842252954541E+00
 cg2d: Sum(rhs),rhsMax =  -9.34712076627875E-08  9.27358855590945E+00
 cg2d: Sum(rhs),rhsMax =  -9.34198851609835E-08  9.27872221865362E+00
 cg2d: Sum(rhs),rhsMax =  -9.33687331894362E-08  9.28381269175841E+00
 cg2d: Sum(rhs),rhsMax =  -9.33183130769066E-08  9.28884990364347E+00
 cg2d: Sum(rhs),rhsMax =  -9.32684542931383E-08  9.29382460831193E+00
 cg2d: Sum(rhs),rhsMax =  -9.32194410552256E-08  9.29872876125425E+00
 cg2d: Sum(rhs),rhsMax =  -9.31711383600486E-08  9.30355578941157E+00
 cg2d: Sum(rhs),rhsMax =  -9.31240364820951E-08  9.30830071441787E+00
 cg2d: Sum(rhs),rhsMax =  -9.30773893514925E-08  9.31296016039586E+00
 cg2d: Sum(rhs),rhsMax =  -9.30318719838397E-08  9.31753230345820E+00
 cg2d: Sum(rhs),rhsMax =  -9.29872783217434E-08  9.32201677457960E+00
 cg2d: Sum(rhs),rhsMax =  -9.29437931063148E-08  9.32641453687162E+00
 cg2d: Sum(rhs),rhsMax =  -9.29007910599466E-08  9.33072777407330E+00
 cg2d: Sum(rhs),rhsMax =  -9.28590253579387E-08  9.33495977832897E+00
 cg2d: Sum(rhs),rhsMax =  -9.28177001924269E-08  9.33911483571782E+00
 cg2d: Sum(rhs),rhsMax =  -9.27770358316593E-08  9.34319809772528E+00
 cg2d: Sum(rhs),rhsMax =  -9.27373591252945E-08  9.34721542637213E+00
 cg2d: Sum(rhs),rhsMax =  -9.26982295368362E-08  9.35117321728378E+00
 cg2d: Sum(rhs),rhsMax =  -9.26594978523099E-08  9.35507820898651E+00
 cg2d: Sum(rhs),rhsMax =  -9.26212777585533E-08  9.35893728101038E+00
 cg2d: Sum(rhs),rhsMax =  -9.25836900478316E-08  9.36275724876052E+00
 cg2d: Sum(rhs),rhsMax =  -9.25467347201447E-08  9.36654466497940E+00
 cg2d: Sum(rhs),rhsMax =  -9.25093388559617E-08  9.37030563739009E+00
 cg2d: Sum(rhs),rhsMax =  -9.24723693174201E-08  9.37404566529748E+00
 cg2d: Sum(rhs),rhsMax =  -9.24358261045199E-08  9.37776950669782E+00
 cg2d: Sum(rhs),rhsMax =  -9.23998015878169E-08  9.38148107939576E+00
 cg2d: Sum(rhs),rhsMax =  -9.23633649563271E-08  9.38518340080342E+00
 cg2d: Sum(rhs),rhsMax =  -9.23271628039402E-08  9.38887856431341E+00
 cg2d: Sum(rhs),rhsMax =  -9.22907545941598E-08  9.39256775253961E+00
 cg2d: Sum(rhs),rhsMax =  -9.22549361348501E-08  9.39625127829926E+00
 cg2d: Sum(rhs),rhsMax =  -9.22186487173349E-08  9.39992865313115E+00
 cg2d: Sum(rhs),rhsMax =  -9.21831713185384E-08  9.40359867110262E+00
 cg2d: Sum(rhs),rhsMax =  -9.21473457538013E-08  9.40725949891390E+00
 cg2d: Sum(rhs),rhsMax =  -9.21119038821416E-08  9.41090875978471E+00
 cg2d: Sum(rhs),rhsMax =  -9.20763412182168E-08  9.41454361858659E+00
 cg2d: Sum(rhs),rhsMax =  -9.20410343496769E-08  9.41816086827301E+00
 cg2d: Sum(rhs),rhsMax =  -9.20060685416502E-08  9.42175701532902E+00
 cg2d: Sum(rhs),rhsMax =  -9.19711879987517E-08  9.42532836100955E+00
 EXTERNAL_FIELDS_LOAD, it=   3600150 : Reading new data, i0,i1=    3    4 (prev=    2    3 )
 DIC_FIELDS_LOAD, it=   3600150 : Reading new data, i0,i1=    3    4 (prev=    2    3 )
 cg2d: Sum(rhs),rhsMax =  -9.19367622032041E-08  9.42887108055882E+00
 cg2d: Sum(rhs),rhsMax =  -9.19030327395376E-08  9.43235832256638E+00
 cg2d: Sum(rhs),rhsMax =  -9.18696727580937E-08  9.43577294710938E+00
 cg2d: Sum(rhs),rhsMax =  -9.18375349101552E-08  9.43909901719340E+00
 cg2d: Sum(rhs),rhsMax =  -9.18056457521743E-08  9.44232226351574E+00
 cg2d: Sum(rhs),rhsMax =  -9.17754618967592E-08  9.44543045713848E+00
 cg2d: Sum(rhs),rhsMax =  -9.17468696570722E-08  9.44841368652191E+00
 cg2d: Sum(rhs),rhsMax =  -9.17188671678559E-08  9.45126453300903E+00
 cg2d: Sum(rhs),rhsMax =  -9.16929749905648E-08  9.45397814472091E+00
 cg2d: Sum(rhs),rhsMax =  -9.16680278351123E-08  9.45655223330268E+00
 cg2d: Sum(rhs),rhsMax =  -9.16445941356869E-08  9.45898700078271E+00
 cg2d: Sum(rhs),rhsMax =  -9.16223754643397E-08  9.46128500172268E+00
 cg2d: Sum(rhs),rhsMax =  -9.16011231311131E-08  9.46345095767279E+00
 cg2d: Sum(rhs),rhsMax =  -9.15811568802383E-08  9.46549153513779E+00
 cg2d: Sum(rhs),rhsMax =  -9.15625619768434E-08  9.46741508859273E+00
 cg2d: Sum(rhs),rhsMax =  -9.15451252581079E-08  9.46923137659912E+00
 cg2d: Sum(rhs),rhsMax =  -9.15285980340741E-08  9.47095124324780E+00
 cg2d: Sum(rhs),rhsMax =  -9.15126108225195E-08  9.47258633929544E+00
 cg2d: Sum(rhs),rhsMax =  -9.14974762622478E-08  9.47414881667898E+00
 cg2d: Sum(rhs),rhsMax =  -9.14831588261222E-08  9.47565102854520E+00
 cg2d: Sum(rhs),rhsMax =  -9.14691185016636E-08  9.47710524161440E+00
 cg2d: Sum(rhs),rhsMax =  -9.14552913400257E-08  9.47852337330871E+00
 cg2d: Sum(rhs),rhsMax =  -9.14417910280463E-08  9.47991675839448E+00
 cg2d: Sum(rhs),rhsMax =  -9.14288023068366E-08  9.48129594936036E+00
 cg2d: Sum(rhs),rhsMax =  -9.14153162057119E-08  9.48267055268677E+00
 cg2d: Sum(rhs),rhsMax =  -9.14016951014673E-08  9.48404910672501E+00
 cg2d: Sum(rhs),rhsMax =  -9.13883866360266E-08  9.48543898881096E+00
 cg2d: Sum(rhs),rhsMax =  -9.13749147457565E-08  9.48684634838855E+00
 cg2d: Sum(rhs),rhsMax =  -9.13611231112554E-08  9.48827608016959E+00
 cg2d: Sum(rhs),rhsMax =  -9.13465854068818E-08  9.48973182637241E+00
 cg2d: Sum(rhs),rhsMax =  -9.13324456064402E-08  9.49121598932757E+00
 cg2d: Sum(rhs),rhsMax =  -9.13176805283911E-08  9.49272976482376E+00
 cg2d: Sum(rhs),rhsMax =  -9.13029793991882E-08  9.49427318407705E+00
 cg2d: Sum(rhs),rhsMax =  -9.12876600978052E-08  9.49584517202971E+00
 cg2d: Sum(rhs),rhsMax =  -9.12722768475760E-08  9.49744362566448E+00
 cg2d: Sum(rhs),rhsMax =  -9.12563962174318E-08  9.49906550905340E+00
 cg2d: Sum(rhs),rhsMax =  -9.12406292741252E-08  9.50070696299551E+00
 cg2d: Sum(rhs),rhsMax =  -9.12245567974423E-08  9.50236342680402E+00
 cg2d: Sum(rhs),rhsMax =  -9.12086122184519E-08  9.50402976802920E+00
 cg2d: Sum(rhs),rhsMax =  -9.11920636781360E-08  9.50570042893596E+00
 cg2d: Sum(rhs),rhsMax =  -9.11760835720088E-08  9.50736956748404E+00
 cg2d: Sum(rhs),rhsMax =  -9.11599897790438E-08  9.50903122489705E+00
 cg2d: Sum(rhs),rhsMax =  -9.11439812512072E-08  9.51067944299842E+00
 cg2d: Sum(rhs),rhsMax =  -9.11286619498242E-08  9.51230836255520E+00
 cg2d: Sum(rhs),rhsMax =  -9.11128452685261E-08  9.51391232343393E+00
 cg2d: Sum(rhs),rhsMax =  -9.10978172896648E-08  9.51548598638282E+00
 cg2d: Sum(rhs),rhsMax =  -9.10825903588375E-08  9.51702443978652E+00
 cg2d: Sum(rhs),rhsMax =  -9.10679744947629E-08  9.51852327194360E+00
 cg2d: Sum(rhs),rhsMax =  -9.10538062726118E-08  9.51997861079381E+00
 cg2d: Sum(rhs),rhsMax =  -9.10403272769145E-08  9.52138713289450E+00
 cg2d: Sum(rhs),rhsMax =  -9.10271680254482E-08  9.52274605554116E+00
 cg2d: Sum(rhs),rhsMax =  -9.10143498344951E-08  9.52405313717331E+00
 cg2d: Sum(rhs),rhsMax =  -9.10022919242692E-08  9.52530666028232E+00
 cg2d: Sum(rhs),rhsMax =  -9.09905324419924E-08  9.52650541109617E+00
 cg2d: Sum(rhs),rhsMax =  -9.09794692915966E-08  9.52764864727963E+00
 cg2d: Sum(rhs),rhsMax =  -9.09689816808168E-08  9.52873605079492E+00
 cg2d: Sum(rhs),rhsMax =  -9.09588422359775E-08  9.52976767849440E+00
 cg2d: Sum(rhs),rhsMax =  -9.09493280687457E-08  9.53074391639987E+00
 cg2d: Sum(rhs),rhsMax =  -9.09404391791213E-08  9.53166530103624E+00
 cg2d: Sum(rhs),rhsMax =  -9.09316284491979E-08  9.53253252588939E+00
 EXTERNAL_FIELDS_LOAD, it=   3600210 : Reading new data, i0,i1=    4    5 (prev=    3    4 )
 DIC_FIELDS_LOAD, it=   3600210 : Reading new data, i0,i1=    4    5 (prev=    3    4 )
 cg2d: Sum(rhs),rhsMax =  -9.09236845814121E-08  9.53334634295211E+00
 cg2d: Sum(rhs),rhsMax =  -9.09162238826866E-08  9.53412016630968E+00
 cg2d: Sum(rhs),rhsMax =  -9.09088555545168E-08  9.53486144691540E+00
 cg2d: Sum(rhs),rhsMax =  -9.09020556605356E-08  9.53557668814411E+00
 cg2d: Sum(rhs),rhsMax =  -9.08950781308704E-08  9.53626990934916E+00
 cg2d: Sum(rhs),rhsMax =  -9.08885269268467E-08  9.53694479201801E+00
 cg2d: Sum(rhs),rhsMax =  -9.08819686173956E-08  9.53760402798875E+00
 cg2d: Sum(rhs),rhsMax =  -9.08758792661502E-08  9.53824943192211E+00
 cg2d: Sum(rhs),rhsMax =  -9.08692001644340E-08  9.53888215688552E+00
 cg2d: Sum(rhs),rhsMax =  -9.08633310814366E-08  9.53950304357000E+00
 cg2d: Sum(rhs),rhsMax =  -9.08575117364308E-08  9.54011304176576E+00
 cg2d: Sum(rhs),rhsMax =  -9.08516142317239E-08  9.54071301635899E+00
 cg2d: Sum(rhs),rhsMax =  -9.08458943627011E-08  9.54130322912294E+00
 cg2d: Sum(rhs),rhsMax =  -9.08400252797037E-08  9.54188272003942E+00
 cg2d: Sum(rhs),rhsMax =  -9.08349306882883E-08  9.54244934290944E+00
 cg2d: Sum(rhs),rhsMax =  -9.08295305634965E-08  9.54299999628384E+00
 cg2d: Sum(rhs),rhsMax =  -9.08241872821236E-08  9.54353092308816E+00
 cg2d: Sum(rhs),rhsMax =  -9.08189861092978E-08  9.54403796863502E+00
 cg2d: Sum(rhs),rhsMax =  -9.08142894218145E-08  9.54451678452915E+00
 cg2d: Sum(rhs),rhsMax =  -9.08097916862971E-08  9.54496303374895E+00
 cg2d: Sum(rhs),rhsMax =  -9.08056705384297E-08  9.54537256688658E+00
 cg2d: Sum(rhs),rhsMax =  -9.08016417611179E-08  9.54574155534994E+00
 cg2d: Sum(rhs),rhsMax =  -9.07979256226099E-08  9.54606657177462E+00
 cg2d: Sum(rhs),rhsMax =  -9.07952681927782E-08  9.54634467959792E+00
 cg2d: Sum(rhs),rhsMax =  -9.07924189164078E-08  9.54657345840157E+00
 cg2d: Sum(rhs),rhsMax =  -9.07902162339269E-08  9.54675102924543E+00
 cg2d: Sum(rhs),rhsMax =  -9.07886743561903E-08  9.54687605379506E+00
 cg2d: Sum(rhs),rhsMax =  -9.07877648614885E-08  9.54694771403842E+00
 cg2d: Sum(rhs),rhsMax =  -9.07869193156330E-08  9.54696566951997E+00
 cg2d: Sum(rhs),rhsMax =  -9.07865995714019E-08  9.54692999068711E+00
 cg2d: Sum(rhs),rhsMax =  -9.07872106381546E-08  9.54684108541375E+00
 cg2d: Sum(rhs),rhsMax =  -9.07884682987969E-08  9.54669963264824E+00
 cg2d: Sum(rhs),rhsMax =  -9.07898467517043E-08  9.54650651972953E+00
 cg2d: Sum(rhs),rhsMax =  -9.07915449488428E-08  9.54626274758502E+00
 cg2d: Sum(rhs),rhsMax =  -9.07941455352557E-08  9.54596935750525E+00
 cg2d: Sum(rhs),rhsMax =  -9.07970800767544E-08  9.54562738075971E+00
 cg2d: Sum(rhs),rhsMax =  -9.08000501453898E-08  9.54523778248193E+00
 cg2d: Sum(rhs),rhsMax =  -9.08038089164620E-08  9.54480140259877E+00
 cg2d: Sum(rhs),rhsMax =  -9.08078732209106E-08  9.54431888382345E+00
 cg2d: Sum(rhs),rhsMax =  -9.08128896526250E-08  9.54379063440704E+00
 cg2d: Sum(rhs),rhsMax =  -9.08179274006216E-08  9.54321682610369E+00
 cg2d: Sum(rhs),rhsMax =  -9.08231072571652E-08  9.54259741627488E+00
 cg2d: Sum(rhs),rhsMax =  -9.08294239820862E-08  9.54193218180504E+00
 cg2d: Sum(rhs),rhsMax =  -9.08357407070071E-08  9.54122075566689E+00
 cg2d: Sum(rhs),rhsMax =  -9.08426116552619E-08  9.54046266149910E+00
 cg2d: Sum(rhs),rhsMax =  -9.08497668206110E-08  9.53965734943055E+00
 cg2d: Sum(rhs),rhsMax =  -9.08576467395505E-08  9.53880424419014E+00
 cg2d: Sum(rhs),rhsMax =  -9.08659032461401E-08  9.53790282192021E+00
 cg2d: Sum(rhs),rhsMax =  -9.08746713434994E-08  9.53695268180845E+00
 cg2d: Sum(rhs),rhsMax =  -9.08840078750472E-08  9.53595362230667E+00
 cg2d: Sum(rhs),rhsMax =  -9.08936215182621E-08  9.53490571447803E+00
 cg2d: Sum(rhs),rhsMax =  -9.09042654484438E-08  9.53380930168364E+00
 cg2d: Sum(rhs),rhsMax =  -9.09145470018302E-08  9.53266493640869E+00
 cg2d: Sum(rhs),rhsMax =  -9.09259227910297E-08  9.53147332889492E+00
 cg2d: Sum(rhs),rhsMax =  -9.09384141323244E-08  9.53023537646442E+00
 cg2d: Sum(rhs),rhsMax =  -9.09505217805417E-08  9.52895220993865E+00
 cg2d: Sum(rhs),rhsMax =  -9.09629278567081E-08  9.52762520262973E+00
 cg2d: Sum(rhs),rhsMax =  -9.09757815747980E-08  9.52625594300855E+00
 cg2d: Sum(rhs),rhsMax =  -9.09892747813501E-08  9.52484621149773E+00
 cg2d: Sum(rhs),rhsMax =  -9.10029882561503E-08  9.52339794221070E+00
 EXTERNAL_FIELDS_LOAD, it=   3600270 : Reading new data, i0,i1=    5    6 (prev=    4    5 )
 DIC_FIELDS_LOAD, it=   3600270 : Reading new data, i0,i1=    5    6 (prev=    4    5 )
 cg2d: Sum(rhs),rhsMax =  -9.10169930534721E-08  9.52191318167782E+00
 cg2d: Sum(rhs),rhsMax =  -9.10311257484864E-08  9.52041761022813E+00
 cg2d: Sum(rhs),rhsMax =  -9.10455213443129E-08  9.51892843351038E+00
 cg2d: Sum(rhs),rhsMax =  -9.10593485059508E-08  9.51746258399289E+00
 cg2d: Sum(rhs),rhsMax =  -9.10729625047679E-08  9.51603636817957E+00
 cg2d: Sum(rhs),rhsMax =  -9.10860507019606E-08  9.51466517931999E+00
 cg2d: Sum(rhs),rhsMax =  -9.10986344138109E-08  9.51336322967766E+00
 cg2d: Sum(rhs),rhsMax =  -9.11102233658312E-08  9.51214329321166E+00
 cg2d: Sum(rhs),rhsMax =  -9.11212367782355E-08  9.51101645114812E+00
 cg2d: Sum(rhs),rhsMax =  -9.11308219997409E-08  9.50999185515969E+00
 cg2d: Sum(rhs),rhsMax =  -9.11397606273567E-08  9.50907652378690E+00
 cg2d: Sum(rhs),rhsMax =  -9.11473847509114E-08  9.50827517814543E+00
 cg2d: Sum(rhs),rhsMax =  -9.11540354309182E-08  9.50759014752173E+00
 cg2d: Sum(rhs),rhsMax =  -9.11595421371203E-08  9.50702134377118E+00
 cg2d: Sum(rhs),rhsMax =  -9.11640682943471E-08  9.50656629011210E+00
 cg2d: Sum(rhs),rhsMax =  -9.11673012637948E-08  9.50622019182364E+00
 cg2d: Sum(rhs),rhsMax =  -9.11696744765322E-08  9.50597606771963E+00
 cg2d: Sum(rhs),rhsMax =  -9.11708539774736E-08  9.50582494250500E+00
 cg2d: Sum(rhs),rhsMax =  -9.11716497853376E-08  9.50575608648473E+00
 cg2d: Sum(rhs),rhsMax =  -9.11714224116622E-08  9.50575729587021E+00
 cg2d: Sum(rhs),rhsMax =  -9.11708468720462E-08  9.50581523373235E+00
 cg2d: Sum(rhs),rhsMax =  -9.11699018502077E-08  9.50591575069248E+00
 cg2d: Sum(rhs),rhsMax =  -9.11685589244371E-08  9.50604420974297E+00
 cg2d: Sum(rhs),rhsMax =  -9.11669744141363E-08  9.50618583284504E+00
 cg2d: Sum(rhs),rhsMax =  -9.11656883317846E-08  9.50632606101357E+00
 cg2d: Sum(rhs),rhsMax =  -9.11643525114414E-08  9.50645090757042E+00
 cg2d: Sum(rhs),rhsMax =  -9.11635567035773E-08  9.50654729113363E+00
 cg2d: Sum(rhs),rhsMax =  -9.11632938027651E-08  9.50660334354173E+00
 cg2d: Sum(rhs),rhsMax =  -9.11633009081925E-08  9.50660868062301E+00
 cg2d: Sum(rhs),rhsMax =  -9.11639332912273E-08  9.50655462562515E+00
 cg2d: Sum(rhs),rhsMax =  -9.11649706836215E-08  9.50643436311089E+00
 cg2d: Sum(rhs),rhsMax =  -9.11672302095212E-08  9.50624304674150E+00
 cg2d: Sum(rhs),rhsMax =  -9.11696460548228E-08  9.50597781905916E+00
 cg2d: Sum(rhs),rhsMax =  -9.11727440211507E-08  9.50563777710892E+00
 cg2d: Sum(rhs),rhsMax =  -9.11770854372662E-08  9.50522393135291E+00
 cg2d: Sum(rhs),rhsMax =  -9.11816186999204E-08  9.50473911463816E+00
 cg2d: Sum(rhs),rhsMax =  -9.11870614572763E-08  9.50418773930678E+00
 cg2d: Sum(rhs),rhsMax =  -9.11928168534359E-08  9.50357558691374E+00
 cg2d: Sum(rhs),rhsMax =  -9.11992827923314E-08  9.50290964447458E+00
 cg2d: Sum(rhs),rhsMax =  -9.12065729608003E-08  9.50219791542795E+00
 cg2d: Sum(rhs),rhsMax =  -9.12139270781154E-08  9.50144918276843E+00
 cg2d: Sum(rhs),rhsMax =  -9.12212811954305E-08  9.50067274580360E+00
 cg2d: Sum(rhs),rhsMax =  -9.12293955934729E-08  9.49987815929010E+00
 cg2d: Sum(rhs),rhsMax =  -9.12369131356172E-08  9.49907498366882E+00
 cg2d: Sum(rhs),rhsMax =  -9.12447788437021E-08  9.49827255755378E+00
 cg2d: Sum(rhs),rhsMax =  -9.12528008711888E-08  9.49747978836020E+00
 cg2d: Sum(rhs),rhsMax =  -9.12602686753416E-08  9.49670496341604E+00
 cg2d: Sum(rhs),rhsMax =  -9.12679780640246E-08  9.49595558374171E+00
 cg2d: Sum(rhs),rhsMax =  -9.12747850634332E-08  9.49523821505845E+00
 cg2d: Sum(rhs),rhsMax =  -9.12811941589098E-08  9.49455836839740E+00
 cg2d: Sum(rhs),rhsMax =  -9.12878306280618E-08  9.49392042323925E+00
 cg2d: Sum(rhs),rhsMax =  -9.12937139219139E-08  9.49332754785973E+00
 cg2d: Sum(rhs),rhsMax =  -9.12992632606802E-08  9.49278165465699E+00
 cg2d: Sum(rhs),rhsMax =  -9.13035833605136E-08  9.49228339433203E+00
 cg2d: Sum(rhs),rhsMax =  -9.13086424247922E-08  9.49183218209292E+00
 cg2d: Sum(rhs),rhsMax =  -9.13127422563775E-08  9.49142625728328E+00
 cg2d: Sum(rhs),rhsMax =  -9.13163518134752E-08  9.49106276286301E+00
 cg2d: Sum(rhs),rhsMax =  -9.13194782015125E-08  9.49073783789306E+00
 cg2d: Sum(rhs),rhsMax =  -9.13225406407037E-08  9.49044672400271E+00
 cg2d: Sum(rhs),rhsMax =  -9.13253046519458E-08  9.49018390323782E+00
 EXTERNAL_FIELDS_LOAD, it=   3600330 : Reading new data, i0,i1=    6    7 (prev=    5    6 )
 DIC_FIELDS_LOAD, it=   3600330 : Reading new data, i0,i1=    6    7 (prev=    5    6 )
 cg2d: Sum(rhs),rhsMax =  -9.13276210212643E-08  9.48994325700856E+00
 cg2d: Sum(rhs),rhsMax =  -9.13303352945150E-08  9.48970801758053E+00
 cg2d: Sum(rhs),rhsMax =  -9.13328221940901E-08  9.48946471682098E+00
 cg2d: Sum(rhs),rhsMax =  -9.13353943587936E-08  9.48919980375378E+00
 cg2d: Sum(rhs),rhsMax =  -9.13383644274290E-08  9.48889996251626E+00
 cg2d: Sum(rhs),rhsMax =  -9.13418460868343E-08  9.48855235316500E+00
 cg2d: Sum(rhs),rhsMax =  -9.13461093432488E-08  9.48814487205053E+00
 cg2d: Sum(rhs),rhsMax =  -9.13508344524416E-08  9.48766639266868E+00
 cg2d: Sum(rhs),rhsMax =  -9.13563624749258E-08  9.48710698236420E+00
 cg2d: Sum(rhs),rhsMax =  -9.13624518261713E-08  9.48645808347463E+00
 cg2d: Sum(rhs),rhsMax =  -9.13698130489138E-08  9.48571268422533E+00
 cg2d: Sum(rhs),rhsMax =  -9.13783111400335E-08  9.48486545850383E+00
 cg2d: Sum(rhs),rhsMax =  -9.13876760932908E-08  9.48391285858374E+00
 cg2d: Sum(rhs),rhsMax =  -9.13977800109933E-08  9.48285315351105E+00
 cg2d: Sum(rhs),rhsMax =  -9.14093334358768E-08  9.48168641391458E+00
 cg2d: Sum(rhs),rhsMax =  -9.14215760872139E-08  9.48041445516485E+00
 cg2d: Sum(rhs),rhsMax =  -9.14348703418000E-08  9.47904073781749E+00
 cg2d: Sum(rhs),rhsMax =  -9.14490314585237E-08  9.47757022510765E+00
 cg2d: Sum(rhs),rhsMax =  -9.14641802296501E-08  9.47600920384239E+00
 cg2d: Sum(rhs),rhsMax =  -9.14802384954783E-08  9.47436507523804E+00
 cg2d: Sum(rhs),rhsMax =  -9.14970428311790E-08  9.47264612546539E+00
 cg2d: Sum(rhs),rhsMax =  -9.15143658630768E-08  9.47086128598380E+00
 cg2d: Sum(rhs),rhsMax =  -9.15317244221114E-08  9.46901988541289E+00
 cg2d: Sum(rhs),rhsMax =  -9.15503548526431E-08  9.46713139755286E+00
 cg2d: Sum(rhs),rhsMax =  -9.15688005420634E-08  9.46520519129246E+00
 cg2d: Sum(rhs),rhsMax =  -9.15879354579374E-08  9.46325027783096E+00
 cg2d: Sum(rhs),rhsMax =  -9.16070561629567E-08  9.46127510172983E+00
 cg2d: Sum(rhs),rhsMax =  -9.16269016215665E-08  9.45928736176468E+00
 cg2d: Sum(rhs),rhsMax =  -9.16458375854745E-08  9.45729384446051E+00
 cg2d: Sum(rhs),rhsMax =  -9.16652354021608E-08  9.45530032221759E+00
 cg2d: Sum(rhs),rhsMax =  -9.16847469056847E-08  9.45331147339530E+00
 cg2d: Sum(rhs),rhsMax =  -9.17041660386531E-08  9.45133082537812E+00
 cg2d: Sum(rhs),rhsMax =  -9.17234714847837E-08  9.44936073119909E+00
 cg2d: Sum(rhs),rhsMax =  -9.17423008672813E-08  9.44740238220463E+00
 cg2d: Sum(rhs),rhsMax =  -9.17614002560185E-08  9.44545585645758E+00
 cg2d: Sum(rhs),rhsMax =  -9.17801870059520E-08  9.44352020252140E+00
 cg2d: Sum(rhs),rhsMax =  -9.17989737558855E-08  9.44159355733174E+00
 cg2d: Sum(rhs),rhsMax =  -9.18179097197935E-08  9.43967327626014E+00
 cg2d: Sum(rhs),rhsMax =  -9.18367177860091E-08  9.43775607395104E+00
 cg2d: Sum(rhs),rhsMax =  -9.18552629514124E-08  9.43583817490269E+00
 cg2d: Sum(rhs),rhsMax =  -9.18742912858761E-08  9.43391546318717E+00
 cg2d: Sum(rhs),rhsMax =  -9.18933977800407E-08  9.43198362529795E+00
 cg2d: Sum(rhs),rhsMax =  -9.19123053222393E-08  9.43003828806143E+00
 cg2d: Sum(rhs),rhsMax =  -9.19319091963189E-08  9.42807514245689E+00
 cg2d: Sum(rhs),rhsMax =  -9.19516196518089E-08  9.42609005034801E+00
 cg2d: Sum(rhs),rhsMax =  -9.19711453661876E-08  9.42407914155286E+00
 cg2d: Sum(rhs),rhsMax =  -9.19916374186869E-08  9.42203890101561E+00
 cg2d: Sum(rhs),rhsMax =  -9.20122005254598E-08  9.41996625280574E+00
 cg2d: Sum(rhs),rhsMax =  -9.20328773190704E-08  9.41785862954787E+00
 cg2d: Sum(rhs),rhsMax =  -9.20541722848611E-08  9.41571402403211E+00
 cg2d: Sum(rhs),rhsMax =  -9.20761920042423E-08  9.41353104362712E+00
 cg2d: Sum(rhs),rhsMax =  -9.20975224971698E-08  9.41130897700722E+00
 cg2d: Sum(rhs),rhsMax =  -9.21202243375774E-08  9.40904782014454E+00
 cg2d: Sum(rhs),rhsMax =  -9.21427556477283E-08  9.40674826682519E+00
 cg2d: Sum(rhs),rhsMax =  -9.21658624974953E-08  9.40441167656376E+00
 cg2d: Sum(rhs),rhsMax =  -9.21897651551262E-08  9.40204003109270E+00
 cg2d: Sum(rhs),rhsMax =  -9.22136393910478E-08  9.39963588692061E+00
 cg2d: Sum(rhs),rhsMax =  -9.22377765277815E-08  9.39720232327049E+00
 cg2d: Sum(rhs),rhsMax =  -9.22617147125493E-08  9.39474287623570E+00
 cg2d: Sum(rhs),rhsMax =  -9.22866476571471E-08  9.39226147078604E+00
 EXTERNAL_FIELDS_LOAD, it=   3600390 : Reading new data, i0,i1=    7    8 (prev=    6    7 )
 DIC_FIELDS_LOAD, it=   3600390 : Reading new data, i0,i1=    7    8 (prev=    6    7 )
 cg2d: Sum(rhs),rhsMax =  -9.23120353490958E-08  9.38976233427929E+00
 cg2d: Sum(rhs),rhsMax =  -9.23369185557021E-08  9.38724381347799E+00
 cg2d: Sum(rhs),rhsMax =  -9.23620930848301E-08  9.38470550458213E+00
 cg2d: Sum(rhs),rhsMax =  -9.23878431535741E-08  9.38214640732935E+00
 cg2d: Sum(rhs),rhsMax =  -9.24133303215058E-08  9.37956498127073E+00
 cg2d: Sum(rhs),rhsMax =  -9.24395564538827E-08  9.37695924403383E+00
 cg2d: Sum(rhs),rhsMax =  -9.24659673273709E-08  9.37432689628576E+00
 cg2d: Sum(rhs),rhsMax =  -9.24926268908166E-08  9.37166545130188E+00
 cg2d: Sum(rhs),rhsMax =  -9.25199330481519E-08  9.36897236493602E+00
 cg2d: Sum(rhs),rhsMax =  -9.25472107837777E-08  9.36624514198210E+00
 cg2d: Sum(rhs),rhsMax =  -9.25749148450450E-08  9.36348144222541E+00
 cg2d: Sum(rhs),rhsMax =  -9.26027894365689E-08  9.36067916467522E+00
 cg2d: Sum(rhs),rhsMax =  -9.26316801042049E-08  9.35783651518778E+00
 cg2d: Sum(rhs),rhsMax =  -9.26604357687211E-08  9.35495205473915E+00
 cg2d: Sum(rhs),rhsMax =  -9.26899872411013E-08  9.35202472862356E+00
 cg2d: Sum(rhs),rhsMax =  -9.27198087197212E-08  9.34905386050751E+00
 cg2d: Sum(rhs),rhsMax =  -9.27502270542391E-08  9.34603912446753E+00
 cg2d: Sum(rhs),rhsMax =  -9.27809580275607E-08  9.34298052032945E+00
 cg2d: Sum(rhs),rhsMax =  -9.28122148025068E-08  9.33987837125357E+00
 cg2d: Sum(rhs),rhsMax =  -9.28438836922396E-08  9.33673332003228E+00
 cg2d: Sum(rhs),rhsMax =  -9.28756591633828E-08  9.33354631509102E+00
 cg2d: Sum(rhs),rhsMax =  -9.29085999246126E-08  9.33031856217985E+00
 cg2d: Sum(rhs),rhsMax =  -9.29414056827227E-08  9.32705144157814E+00
 cg2d: Sum(rhs),rhsMax =  -9.29742824951063E-08  9.32374640924821E+00
 cg2d: Sum(rhs),rhsMax =  -9.30079835370634E-08  9.32040491207867E+00
 cg2d: Sum(rhs),rhsMax =  -9.30417982658582E-08  9.31702830536998E+00
 cg2d: Sum(rhs),rhsMax =  -9.30764798567907E-08  9.31361778906816E+00
 cg2d: Sum(rhs),rhsMax =  -9.31104011669959E-08  9.31017435680010E+00
 cg2d: Sum(rhs),rhsMax =  -9.31454593455783E-08  9.30669874783390E+00
 cg2d: Sum(rhs),rhsMax =  -9.31809367443748E-08  9.30319140183628E+00
 cg2d: Sum(rhs),rhsMax =  -9.32159238686836E-08  9.29965242032067E+00
 cg2d: Sum(rhs),rhsMax =  -9.32518702256857E-08  9.29608155387300E+00
 cg2d: Sum(rhs),rhsMax =  -9.32883352788849E-08  9.29247816276956E+00
 cg2d: Sum(rhs),rhsMax =  -9.33245232204172E-08  9.28884120452690E+00
 cg2d: Sum(rhs),rhsMax =  -9.33613577558390E-08  9.28516924951164E+00
 cg2d: Sum(rhs),rhsMax =  -9.33982562401070E-08  9.28146051649491E+00
 cg2d: Sum(rhs),rhsMax =  -9.34364479121541E-08  9.27771291851975E+00
 cg2d: Sum(rhs),rhsMax =  -9.34740143065937E-08  9.27392411497484E+00
 cg2d: Sum(rhs),rhsMax =  -9.35126251988549E-08  9.27009157616147E+00
 cg2d: Sum(rhs),rhsMax =  -9.35518329470142E-08  9.26621266064052E+00
 cg2d: Sum(rhs),rhsMax =  -9.35912964905583E-08  9.26228469753356E+00
 cg2d: Sum(rhs),rhsMax =  -9.36311082000429E-08  9.25830502540661E+00
 cg2d: Sum(rhs),rhsMax =  -9.36718080879473E-08  9.25427104022615E+00
 cg2d: Sum(rhs),rhsMax =  -9.37130835154676E-08  9.25018025806528E+00
 cg2d: Sum(rhs),rhsMax =  -9.37547639523473E-08  9.24603037476154E+00
 cg2d: Sum(rhs),rhsMax =  -9.37974888870485E-08  9.24181932462259E+00
 cg2d: Sum(rhs),rhsMax =  -9.38402919814507E-08  9.23754533703139E+00
 cg2d: Sum(rhs),rhsMax =  -9.38843172093584E-08  9.23320698439808E+00
 cg2d: Sum(rhs),rhsMax =  -9.39290814017113E-08  9.22880321317793E+00
 cg2d: Sum(rhs),rhsMax =  -9.39739734917566E-08  9.22433335164241E+00
 cg2d: Sum(rhs),rhsMax =  -9.40200521881707E-08  9.21979710173837E+00
 cg2d: Sum(rhs),rhsMax =  -9.40667135296280E-08  9.21519452384442E+00
 cg2d: Sum(rhs),rhsMax =  -9.41140712029664E-08  9.21052602027441E+00
 cg2d: Sum(rhs),rhsMax =  -9.41621181027585E-08  9.20579231856880E+00
 cg2d: Sum(rhs),rhsMax =  -9.42108115964402E-08  9.20099445172383E+00
 cg2d: Sum(rhs),rhsMax =  -9.42603506359774E-08  9.19613373409314E+00
 cg2d: Sum(rhs),rhsMax =  -9.43106570616692E-08  9.19121172891709E+00
 cg2d: Sum(rhs),rhsMax =  -9.43619582471911E-08  9.18623021276131E+00
 cg2d: Sum(rhs),rhsMax =  -9.44129254776271E-08  9.18119115032627E+00
 cg2d: Sum(rhs),rhsMax =  -9.44648874678933E-08  9.17609666859133E+00
 EXTERNAL_FIELDS_LOAD, it=   3600450 : Reading new data, i0,i1=    8    9 (prev=    7    8 )
 DIC_FIELDS_LOAD, it=   3600450 : Reading new data, i0,i1=    8    9 (prev=    7    8 )
 cg2d: Sum(rhs),rhsMax =  -9.45180929079470E-08  9.17094900539886E+00
 cg2d: Sum(rhs),rhsMax =  -9.45713196642828E-08  9.16576037761048E+00
 cg2d: Sum(rhs),rhsMax =  -9.46249869571147E-08  9.16053907873528E+00
 cg2d: Sum(rhs),rhsMax =  -9.46787679367844E-08  9.15529303788953E+00
 cg2d: Sum(rhs),rhsMax =  -9.47327123412833E-08  9.15002961005962E+00
 cg2d: Sum(rhs),rhsMax =  -9.47873814993727E-08  9.14475542293395E+00
 cg2d: Sum(rhs),rhsMax =  -9.48415888046839E-08  9.13947626776025E+00
 cg2d: Sum(rhs),rhsMax =  -9.48963148061921E-08  9.13419703804716E+00
 cg2d: Sum(rhs),rhsMax =  -9.49505718494947E-08  9.12892171232682E+00
 cg2d: Sum(rhs),rhsMax =  -9.50055820680973E-08  9.12365335338700E+00
 cg2d: Sum(rhs),rhsMax =  -9.50602441207593E-08  9.11839411243203E+00
 cg2d: Sum(rhs),rhsMax =  -9.51149274897034E-08  9.11314523538299E+00
 cg2d: Sum(rhs),rhsMax =  -9.51689713701853E-08  9.10790707134369E+00
 cg2d: Sum(rhs),rhsMax =  -9.52241663298992E-08  9.10267908920085E+00
 cg2d: Sum(rhs),rhsMax =  -9.52785583763216E-08  9.09745990818067E+00
 cg2d: Sum(rhs),rhsMax =  -9.53332346398383E-08  9.09224734512777E+00
 cg2d: Sum(rhs),rhsMax =  -9.53879322196372E-08  9.08703847736888E+00
 cg2d: Sum(rhs),rhsMax =  -9.54423811094784E-08  9.08182972075513E+00
 cg2d: Sum(rhs),rhsMax =  -9.54974623823546E-08  9.07661692347198E+00
 cg2d: Sum(rhs),rhsMax =  -9.55527141854873E-08  9.07139547821490E+00
 cg2d: Sum(rhs),rhsMax =  -9.56078878289190E-08  9.06616045270155E+00
 cg2d: Sum(rhs),rhsMax =  -9.56632462134621E-08  9.06090673305150E+00
 cg2d: Sum(rhs),rhsMax =  -9.57190593453561E-08  9.05562917574046E+00
 cg2d: Sum(rhs),rhsMax =  -9.57753982788745E-08  9.05032276301453E+00
 cg2d: Sum(rhs),rhsMax =  -9.58323127520089E-08  9.04498274779792E+00
 cg2d: Sum(rhs),rhsMax =  -9.58890566948867E-08  9.03960479010611E+00
 cg2d: Sum(rhs),rhsMax =  -9.59469090844323E-08  9.03418508103277E+00
 cg2d: Sum(rhs),rhsMax =  -9.60046975251316E-08  9.02872044807494E+00
 cg2d: Sum(rhs),rhsMax =  -9.60634949365158E-08  9.02320843719522E+00
 cg2d: Sum(rhs),rhsMax =  -9.61234505325592E-08  9.01764736350553E+00
 cg2d: Sum(rhs),rhsMax =  -9.61829158541150E-08  9.01203632711249E+00
 cg2d: Sum(rhs),rhsMax =  -9.62436175200310E-08  9.00637519234014E+00
 cg2d: Sum(rhs),rhsMax =  -9.63047241953063E-08  9.00066454100738E+00
 cg2d: Sum(rhs),rhsMax =  -9.63663566722062E-08  8.99490560644289E+00
 cg2d: Sum(rhs),rhsMax =  -9.64286215321408E-08  8.98910019830229E+00
 cg2d: Sum(rhs),rhsMax =  -9.64914832479735E-08  8.98325060608421E+00
 cg2d: Sum(rhs),rhsMax =  -9.65549631359863E-08  8.97735949860674E+00
 cg2d: Sum(rhs),rhsMax =  -9.66191180395981E-08  8.97142982445055E+00
 cg2d: Sum(rhs),rhsMax =  -9.66832942594920E-08  8.96546471599943E+00
 cg2d: Sum(rhs),rhsMax =  -9.67482520763951E-08  8.95946740124540E+00
 cg2d: Sum(rhs),rhsMax =  -9.68132098932983E-08  8.95344112713886E+00
 cg2d: Sum(rhs),rhsMax =  -9.68790274669118E-08  8.94738909112794E+00
 cg2d: Sum(rhs),rhsMax =  -9.69447810916790E-08  8.94131438207753E+00
 cg2d: Sum(rhs),rhsMax =  -9.70111884157632E-08  8.93521991327319E+00
 cg2d: Sum(rhs),rhsMax =  -9.70773115227530E-08  8.92910833888471E+00
 cg2d: Sum(rhs),rhsMax =  -9.71445075492738E-08  8.92298199747039E+00
 cg2d: Sum(rhs),rhsMax =  -9.72113554098541E-08  8.91684290726808E+00
 cg2d: Sum(rhs),rhsMax =  -9.72787574937684E-08  8.91069264633776E+00
 cg2d: Sum(rhs),rhsMax =  -9.73459535202892E-08  8.90453228797114E+00
 cg2d: Sum(rhs),rhsMax =  -9.74135971887335E-08  8.89836249714105E+00
 cg2d: Sum(rhs),rhsMax =  -9.74817027099562E-08  8.89218368115518E+00
 cg2d: Sum(rhs),rhsMax =  -9.75496519117769E-08  8.88599608996445E+00
 cg2d: Sum(rhs),rhsMax =  -9.76179350686834E-08  8.87979980032782E+00
 cg2d: Sum(rhs),rhsMax =  -9.76860476953334E-08  8.87359466021019E+00
 cg2d: Sum(rhs),rhsMax =  -9.77549490244201E-08  8.86737992136571E+00
 cg2d: Sum(rhs),rhsMax =  -9.78237792992331E-08  8.86115449881272E+00
 cg2d: Sum(rhs),rhsMax =  -9.78925882577641E-08  8.85491714939279E+00
 cg2d: Sum(rhs),rhsMax =  -9.79620651264668E-08  8.84866650814923E+00
 cg2d: Sum(rhs),rhsMax =  -9.80318830556826E-08  8.84239908862083E+00
 cg2d: Sum(rhs),rhsMax =  -9.81016583523342E-08  8.83611205511795E+00
 EXTERNAL_FIELDS_LOAD, it=   3600510 : Reading new data, i0,i1=    9   10 (prev=    8    9 )
 DIC_FIELDS_LOAD, it=   3600510 : Reading new data, i0,i1=    9   10 (prev=    8    9 )
 cg2d: Sum(rhs),rhsMax =  -9.81721868242857E-08  8.82980306034887E+00
 cg2d: Sum(rhs),rhsMax =  -9.82427721396562E-08  8.82347164349139E+00
 cg2d: Sum(rhs),rhsMax =  -9.83135990395567E-08  8.81711735596894E+00
 cg2d: Sum(rhs),rhsMax =  -9.83851720093298E-08  8.81074020360017E+00
 cg2d: Sum(rhs),rhsMax =  -9.84564962891454E-08  8.80434063629974E+00
 cg2d: Sum(rhs),rhsMax =  -9.85286376931072E-08  8.79791959804717E+00
 cg2d: Sum(rhs),rhsMax =  -9.86011414738641E-08  8.79147850051498E+00
 cg2d: Sum(rhs),rhsMax =  -9.86734960406466E-08  8.78501923806664E+00
 cg2d: Sum(rhs),rhsMax =  -9.87464900958912E-08  8.77854412431977E+00
 cg2d: Sum(rhs),rhsMax =  -9.88197470519481E-08  8.77205585109022E+00
 cg2d: Sum(rhs),rhsMax =  -9.88934729662105E-08  8.76555740298602E+00
 cg2d: Sum(rhs),rhsMax =  -9.89669146633787E-08  8.75905198910442E+00
 cg2d: Sum(rhs),rhsMax =  -9.90407258427695E-08  8.75254295465281E+00
 cg2d: Sum(rhs),rhsMax =  -9.91145014950234E-08  8.74603368964057E+00
 cg2d: Sum(rhs),rhsMax =  -9.91886466295000E-08  8.73952755244439E+00
 cg2d: Sum(rhs),rhsMax =  -9.92623157003436E-08  8.73302782624689E+00
 cg2d: Sum(rhs),rhsMax =  -9.93363400425551E-08  8.72653766294564E+00
 cg2d: Sum(rhs),rhsMax =  -9.94104141227581E-08  8.72006002219781E+00
 cg2d: Sum(rhs),rhsMax =  -9.94844668866790E-08  8.71359759621992E+00
 cg2d: Sum(rhs),rhsMax =  -9.95583775420528E-08  8.70715278372291E+00
 cg2d: Sum(rhs),rhsMax =  -9.96322597757171E-08  8.70072771032166E+00
 cg2d: Sum(rhs),rhsMax =  -9.97059714791249E-08  8.69432422374462E+00
 cg2d: Sum(rhs),rhsMax =  -9.97792923840279E-08  8.68794392220557E+00
 cg2d: Sum(rhs),rhsMax =  -9.98527127649140E-08  8.68159287495532E+00
 cg2d: Sum(rhs),rhsMax =  -9.99256144496030E-08  8.67527594836007E+00
 cg2d: Sum(rhs),rhsMax =  -9.99983740257449E-08  8.66899648662334E+00
 cg2d: Sum(rhs),rhsMax =  -1.00070764119664E-07  8.66275674813775E+00
 cg2d: Sum(rhs),rhsMax =  -1.00142791836788E-07  8.65655808426570E+00
 cg2d: Sum(rhs),rhsMax =  -1.00214123222031E-07  8.65040095427649E+00
 cg2d: Sum(rhs),rhsMax =  -1.00285419080137E-07  8.64428511771589E+00
 cg2d: Sum(rhs),rhsMax =  -1.00356203347474E-07  8.63820779072895E+00
 cg2d: Sum(rhs),rhsMax =  -1.00426881033400E-07  8.63216610266613E+00
 cg2d: Sum(rhs),rhsMax =  -1.00497182131676E-07  8.62615664857018E+00
 cg2d: Sum(rhs),rhsMax =  -1.00566929006618E-07  8.62017549344574E+00
 cg2d: Sum(rhs),rhsMax =  -1.00636839306389E-07  8.61421824973427E+00
 cg2d: Sum(rhs),rhsMax =  -1.00706515127058E-07  8.60828014305759E+00
 cg2d: Sum(rhs),rhsMax =  -1.00776318845419E-07  8.60235619466164E+00
 cg2d: Sum(rhs),rhsMax =  -1.00845916506387E-07  8.59644141396147E+00
 cg2d: Sum(rhs),rhsMax =  -1.00915485745645E-07  8.59053104903554E+00
 cg2d: Sum(rhs),rhsMax =  -1.00985261042297E-07  8.58462072248315E+00
 cg2d: Sum(rhs),rhsMax =  -1.01055491086299E-07  8.57870663714626E+00
 cg2d: Sum(rhs),rhsMax =  -1.01125422702353E-07  8.57278566865890E+00
 cg2d: Sum(rhs),rhsMax =  -1.01195716695202E-07  8.56685532083521E+00
 cg2d: Sum(rhs),rhsMax =  -1.01266216745444E-07  8.56091374139585E+00
 cg2d: Sum(rhs),rhsMax =  -1.01337192859319E-07  8.55495975914983E+00
 cg2d: Sum(rhs),rhsMax =  -1.01408346608878E-07  8.54899275863313E+00
 cg2d: Sum(rhs),rhsMax =  -1.01479535885574E-07  8.54301265247851E+00
 cg2d: Sum(rhs),rhsMax =  -1.01551435705005E-07  8.53701978569626E+00
 cg2d: Sum(rhs),rhsMax =  -1.01622724457684E-07  8.53101490472480E+00
 cg2d: Sum(rhs),rhsMax =  -1.01695292187287E-07  8.52499919193590E+00
 cg2d: Sum(rhs),rhsMax =  -1.01767554383514E-07  8.51897431341724E+00
 cg2d: Sum(rhs),rhsMax =  -1.01840242905382E-07  8.51294235247767E+00
 cg2d: Sum(rhs),rhsMax =  -1.01912846162122E-07  8.50690569200869E+00
 cg2d: Sum(rhs),rhsMax =  -1.01985413891725E-07  8.50087005576702E+00
 cg2d: Sum(rhs),rhsMax =  -1.02058450579534E-07  8.49484015017416E+00
 cg2d: Sum(rhs),rhsMax =  -1.02131188839394E-07  8.48882063673028E+00
 cg2d: Sum(rhs),rhsMax =  -1.02203856044980E-07  8.48281607441673E+00
 cg2d: Sum(rhs),rhsMax =  -1.02276672464541E-07  8.47683086082370E+00
 cg2d: Sum(rhs),rhsMax =  -1.02349595465512E-07  8.47086915096995E+00
 cg2d: Sum(rhs),rhsMax =  -1.02421360281824E-07  8.46493476809303E+00
 EXTERNAL_FIELDS_LOAD, it=   3600570 : Reading new data, i0,i1=   10   11 (prev=    9   10 )
 DIC_FIELDS_LOAD, it=   3600570 : Reading new data, i0,i1=   10   11 (prev=    9   10 )
 cg2d: Sum(rhs),rhsMax =  -1.02493515896640E-07  8.45903109783263E+00
 cg2d: Sum(rhs),rhsMax =  -1.02564975179575E-07  8.45319648993583E+00
 cg2d: Sum(rhs),rhsMax =  -1.02634501786270E-07  8.44745634270964E+00
 cg2d: Sum(rhs),rhsMax =  -1.02703893389844E-07  8.44183524325516E+00
 cg2d: Sum(rhs),rhsMax =  -1.02770819410125E-07  8.43635626330932E+00
 cg2d: Sum(rhs),rhsMax =  -1.02836231974379E-07  8.43104036727980E+00
 cg2d: Sum(rhs),rhsMax =  -1.02899214482477E-07  8.42590597581903E+00
 cg2d: Sum(rhs),rhsMax =  -1.02960150627496E-07  8.42096861540595E+00
 cg2d: Sum(rhs),rhsMax =  -1.03018727770632E-07  8.41624063283881E+00
 cg2d: Sum(rhs),rhsMax =  -1.03074462742825E-07  8.41173099284368E+00
 cg2d: Sum(rhs),rhsMax =  -1.03127582917750E-07  8.40744522364360E+00
 cg2d: Sum(rhs),rhsMax =  -1.03177704602331E-07  8.40338548638234E+00
 cg2d: Sum(rhs),rhsMax =  -1.03225289649345E-07  8.39955071057647E+00
 cg2d: Sum(rhs),rhsMax =  -1.03270444640202E-07  8.39593686353065E+00
 cg2d: Sum(rhs),rhsMax =  -1.03312800092681E-07  8.39253726007720E+00
 cg2d: Sum(rhs),rhsMax =  -1.03352554958747E-07  8.38934286490718E+00
 cg2d: Sum(rhs),rhsMax =  -1.03389886874083E-07  8.38634267692018E+00
 cg2d: Sum(rhs),rhsMax =  -1.03425186637196E-07  8.38352418466840E+00
 cg2d: Sum(rhs),rhsMax =  -1.03458575040349E-07  8.38087384792736E+00
 cg2d: Sum(rhs),rhsMax =  -1.03489654179612E-07  8.37837764295235E+00
 cg2d: Sum(rhs),rhsMax =  -1.03519347760539E-07  8.37602165023152E+00
 cg2d: Sum(rhs),rhsMax =  -1.03547364460610E-07  8.37379265495454E+00
 cg2d: Sum(rhs),rhsMax =  -1.03573896126363E-07  8.37167859305842E+00
 cg2d: Sum(rhs),rhsMax =  -1.03599155920620E-07  8.36966841617237E+00
 cg2d: Sum(rhs),rhsMax =  -1.03623357006200E-07  8.36775262363169E+00
 cg2d: Sum(rhs),rhsMax =  -1.03646584648232E-07  8.36592322530019E+00
 cg2d: Sum(rhs),rhsMax =  -1.03668426731929E-07  8.36417370361670E+00
 cg2d: Sum(rhs),rhsMax =  -1.03689806962848E-07  8.36249893566327E+00
 cg2d: Sum(rhs),rhsMax =  -1.03710164012227E-07  8.36089512198643E+00
 cg2d: Sum(rhs),rhsMax =  -1.03729064448999E-07  8.35935972193128E+00
 cg2d: Sum(rhs),rhsMax =  -1.03747986202052E-07  8.35789132052859E+00
 cg2d: Sum(rhs),rhsMax =  -1.03765373182796E-07  8.35648953984663E+00
 cg2d: Sum(rhs),rhsMax =  -1.03782369365035E-07  8.35515503666620E+00
 cg2d: Sum(rhs),rhsMax =  -1.03798733164240E-07  8.35388959337713E+00
 cg2d: Sum(rhs),rhsMax =  -1.03813491136862E-07  8.35269612989214E+00
 cg2d: Sum(rhs),rhsMax =  -1.03827638042731E-07  8.35157865319166E+00
 cg2d: Sum(rhs),rhsMax =  -1.03841280463257E-07  8.35054220321588E+00
 cg2d: Sum(rhs),rhsMax =  -1.03853331268056E-07  8.34959282244478E+00
 cg2d: Sum(rhs),rhsMax =  -1.03864024936229E-07  8.34873757212784E+00
 cg2d: Sum(rhs),rhsMax =  -1.03873794898846E-07  8.34798443944571E+00
 cg2d: Sum(rhs),rhsMax =  -1.03881951929452E-07  8.34734205444848E+00
 cg2d: Sum(rhs),rhsMax =  -1.03888730507151E-07  8.34681927427749E+00
 cg2d: Sum(rhs),rhsMax =  -1.03893782466002E-07  8.34642479662444E+00
 cg2d: Sum(rhs),rhsMax =  -1.03896695691219E-07  8.34616690162161E+00
 cg2d: Sum(rhs),rhsMax =  -1.03898251779810E-07  8.34605328416144E+00
 cg2d: Sum(rhs),rhsMax =  -1.03897747294468E-07  8.34609086201575E+00
 cg2d: Sum(rhs),rhsMax =  -1.03895416714295E-07  8.34628560159372E+00
 cg2d: Sum(rhs),rhsMax =  -1.03891132141598E-07  8.34664238294981E+00
 cg2d: Sum(rhs),rhsMax =  -1.03884730151549E-07  8.34716488141953E+00
 cg2d: Sum(rhs),rhsMax =  -1.03876232060429E-07  8.34785544920597E+00
 cg2d: Sum(rhs),rhsMax =  -1.03865339440290E-07  8.34871504733891E+00
 cg2d: Sum(rhs),rhsMax =  -1.03852393351644E-07  8.34974320296400E+00
 cg2d: Sum(rhs),rhsMax =  -1.03837578535604E-07  8.35093803633076E+00
 cg2d: Sum(rhs),rhsMax =  -1.03820866570459E-07  8.35229628921908E+00
 cg2d: Sum(rhs),rhsMax =  -1.03801575335183E-07  8.35381348895399E+00
 cg2d: Sum(rhs),rhsMax =  -1.03780770643880E-07  8.35548405560547E+00
 cg2d: Sum(rhs),rhsMax =  -1.03758168279455E-07  8.35730145035772E+00
 cg2d: Sum(rhs),rhsMax =  -1.03734052459004E-07  8.35925834161856E+00
 cg2d: Sum(rhs),rhsMax =  -1.03707641585515E-07  8.36134677020027E+00
 cg2d: Sum(rhs),rhsMax =  -1.03680264373907E-07  8.36355833544679E+00
 EXTERNAL_FIELDS_LOAD, it=   3600630 : Reading new data, i0,i1=   11   12 (prev=   10   11 )
 DIC_FIELDS_LOAD, it=   3600630 : Reading new data, i0,i1=   11   12 (prev=   10   11 )
 cg2d: Sum(rhs),rhsMax =  -1.03651167648877E-07  8.36588437297216E+00
 cg2d: Sum(rhs),rhsMax =  -1.03620983793462E-07  8.36829873825493E+00
 cg2d: Sum(rhs),rhsMax =  -1.03590167555012E-07  8.37078098256463E+00
 cg2d: Sum(rhs),rhsMax =  -1.03558832620365E-07  8.37331076990736E+00
 cg2d: Sum(rhs),rhsMax =  -1.03526986094948E-07  8.37586828475342E+00
 cg2d: Sum(rhs),rhsMax =  -1.03494969039275E-07  8.37843651347270E+00
 cg2d: Sum(rhs),rhsMax =  -1.03462959089029E-07  8.38100058596186E+00
 cg2d: Sum(rhs),rhsMax =  -1.03431759157502E-07  8.38354800119352E+00
 cg2d: Sum(rhs),rhsMax =  -1.03400431328282E-07  8.38606907281455E+00
 cg2d: Sum(rhs),rhsMax =  -1.03369536930131E-07  8.38855705740912E+00
 cg2d: Sum(rhs),rhsMax =  -1.03339182544460E-07  8.39100818777902E+00
 cg2d: Sum(rhs),rhsMax =  -1.03309091059600E-07  8.39342162927294E+00
 cg2d: Sum(rhs),rhsMax =  -1.03279326424399E-07  8.39579937673915E+00
 cg2d: Sum(rhs),rhsMax =  -1.03250158645096E-07  8.39814606298476E+00
 cg2d: Sum(rhs),rhsMax =  -1.03221587721691E-07  8.40046867037939E+00
 cg2d: Sum(rhs),rhsMax =  -1.03192640210636E-07  8.40277617859981E+00
 cg2d: Sum(rhs),rhsMax =  -1.03164317977189E-07  8.40507915533000E+00
 cg2d: Sum(rhs),rhsMax =  -1.03135583628955E-07  8.40738929078001E+00
 cg2d: Sum(rhs),rhsMax =  -1.03106465587643E-07  8.40971893982490E+00
 cg2d: Sum(rhs),rhsMax =  -1.03077603341717E-07  8.41208069021930E+00
 cg2d: Sum(rhs),rhsMax =  -1.03047760546815E-07  8.41448664736628E+00
 cg2d: Sum(rhs),rhsMax =  -1.03017328001442E-07  8.41694808963461E+00
 cg2d: Sum(rhs),rhsMax =  -1.02985850958248E-07  8.41947641344255E+00
 cg2d: Sum(rhs),rhsMax =  -1.02953762848301E-07  8.42209465677943E+00
 cg2d: Sum(rhs),rhsMax =  -1.02920779454507E-07  8.42481840011152E+00
 cg2d: Sum(rhs),rhsMax =  -1.02885756803062E-07  8.42766143831664E+00
 cg2d: Sum(rhs),rhsMax =  -1.02849760708068E-07  8.43063562227923E+00
 cg2d: Sum(rhs),rhsMax =  -1.02811505087175E-07  8.43375048923612E+00
 cg2d: Sum(rhs),rhsMax =  -1.02771743115682E-07  8.43701312183894E+00
 cg2d: Sum(rhs),rhsMax =  -1.02730268736195E-07  8.44042805498092E+00
 cg2d: Sum(rhs),rhsMax =  -1.02686364300553E-07  8.44399728026233E+00
 cg2d: Sum(rhs),rhsMax =  -1.02641237731405E-07  8.44772028674299E+00
 cg2d: Sum(rhs),rhsMax =  -1.02594057693750E-07  8.45159419183708E+00
 cg2d: Sum(rhs),rhsMax =  -1.02545079982974E-07  8.45561389463918E+00
 cg2d: Sum(rhs),rhsMax =  -1.02494418285914E-07  8.45977229544668E+00
 cg2d: Sum(rhs),rhsMax =  -1.02442626825905E-07  8.46406043486096E+00
 cg2d: Sum(rhs),rhsMax =  -1.02389186906748E-07  8.46846786249842E+00
 cg2d: Sum(rhs),rhsMax =  -1.02334411167249E-07  8.47298294092153E+00
 cg2d: Sum(rhs),rhsMax =  -1.02278569613645E-07  8.47759310010859E+00
 cg2d: Sum(rhs),rhsMax =  -1.02221783038203E-07  8.48228511495217E+00
 cg2d: Sum(rhs),rhsMax =  -1.02164435134000E-07  8.48704540520819E+00
 cg2d: Sum(rhs),rhsMax =  -1.02106639587873E-07  8.49186038102640E+00
 cg2d: Sum(rhs),rhsMax =  -1.02048161920720E-07  8.49671683330553E+00
 cg2d: Sum(rhs),rhsMax =  -1.01989222400789E-07  8.50160229731839E+00
 cg2d: Sum(rhs),rhsMax =  -1.01930119456028E-07  8.50650541756349E+00
 cg2d: Sum(rhs),rhsMax =  -1.01871734159431E-07  8.51141606286167E+00
 cg2d: Sum(rhs),rhsMax =  -1.01813114383731E-07  8.51632550458549E+00
 cg2d: Sum(rhs),rhsMax =  -1.01754352499484E-07  8.52122658728227E+00
 cg2d: Sum(rhs),rhsMax =  -1.01695938781177E-07  8.52611387363114E+00
 cg2d: Sum(rhs),rhsMax =  -1.01637908755947E-07  8.53098375482528E+00
 cg2d: Sum(rhs),rhsMax =  -1.01580091893538E-07  8.53583450654913E+00
 cg2d: Sum(rhs),rhsMax =  -1.01522516615660E-07  8.54066629803099E+00
 cg2d: Sum(rhs),rhsMax =  -1.01465325030858E-07  8.54548114840508E+00
 cg2d: Sum(rhs),rhsMax =  -1.01408510033707E-07  8.55028281355603E+00
 cg2d: Sum(rhs),rhsMax =  -1.01351844250530E-07  8.55507663782142E+00
 cg2d: Sum(rhs),rhsMax =  -1.01294901355686E-07  8.55986938569464E+00
 cg2d: Sum(rhs),rhsMax =  -1.01238242677937E-07  8.56466907941720E+00
 cg2d: Sum(rhs),rhsMax =  -1.01181711897880E-07  8.56948481849350E+00
 cg2d: Sum(rhs),rhsMax =  -1.01124427942523E-07  8.57432655386490E+00
 cg2d: Sum(rhs),rhsMax =  -1.01066994773191E-07  8.57920482306538E+00
 EXTERNAL_FIELDS_LOAD, it=   3600690 : Reading new data, i0,i1=   12    1 (prev=   11   12 )
 DIC_FIELDS_LOAD, it=   3600690 : Reading new data, i0,i1=   12    1 (prev=   11   12 )
 cg2d: Sum(rhs),rhsMax =  -1.01009099751082E-07  8.58413045456863E+00
 cg2d: Sum(rhs),rhsMax =  -1.00950970249869E-07  8.58908772075261E+00
 cg2d: Sum(rhs),rhsMax =  -1.00892201260194E-07  8.59407113784658E+00
 cg2d: Sum(rhs),rhsMax =  -1.00833979388426E-07  8.59907533504329E+00
 cg2d: Sum(rhs),rhsMax =  -1.00775366718153E-07  8.60409527812640E+00
 cg2d: Sum(rhs),rhsMax =  -1.00716533779632E-07  8.60912639608676E+00
 cg2d: Sum(rhs),rhsMax =  -1.00657807422522E-07  8.61416467727663E+00
 cg2d: Sum(rhs),rhsMax =  -1.00599194752249E-07  8.61920670304104E+00
 cg2d: Sum(rhs),rhsMax =  -1.00540219705181E-07  8.62424959025954E+00
 cg2d: Sum(rhs),rhsMax =  -1.00481713616318E-07  8.62929084710763E+00
 cg2d: Sum(rhs),rhsMax =  -1.00423278581729E-07  8.63432823431656E+00
 cg2d: Sum(rhs),rhsMax =  -1.00365085131671E-07  8.63935967110789E+00
 cg2d: Sum(rhs),rhsMax =  -1.00306984052168E-07  8.64438326330631E+00
 cg2d: Sum(rhs),rhsMax =  -1.00248698231553E-07  8.64939736363611E+00
 cg2d: Sum(rhs),rhsMax =  -1.00191144269957E-07  8.65440069908248E+00
 cg2d: Sum(rhs),rhsMax =  -1.00133568992078E-07  8.65939260929048E+00
 cg2d: Sum(rhs),rhsMax =  -1.00076100295610E-07  8.66437312037654E+00
 cg2d: Sum(rhs),rhsMax =  -1.00019036608501E-07  8.66934290835576E+00
 cg2d: Sum(rhs),rhsMax =  -9.99617597585711E-08  8.67430225124478E+00
 cg2d: Sum(rhs),rhsMax =  -9.99047102823170E-08  8.67925494682890E+00
 cg2d: Sum(rhs),rhsMax =  -9.98482363456787E-08  8.68420608713978E+00
 cg2d: Sum(rhs),rhsMax =  -9.97913716105359E-08  8.68916081980566E+00
 cg2d: Sum(rhs),rhsMax =  -9.97343434505638E-08  8.69412416784580E+00
 cg2d: Sum(rhs),rhsMax =  -9.96773295014464E-08  8.69910085245627E+00
 cg2d: Sum(rhs),rhsMax =  -9.96202871306195E-08  8.70409517445086E+00
 cg2d: Sum(rhs),rhsMax =  -9.95629250155616E-08  8.70911095741398E+00
 cg2d: Sum(rhs),rhsMax =  -9.95059110664442E-08  8.71415148969223E+00
 cg2d: Sum(rhs),rhsMax =  -9.94480160443345E-08  8.71921930590513E+00
 cg2d: Sum(rhs),rhsMax =  -9.93902702361993E-08  8.72431607432102E+00
 cg2d: Sum(rhs),rhsMax =  -9.93317215147727E-08  8.72944261226047E+00
 cg2d: Sum(rhs),rhsMax =  -9.92735280647139E-08  8.73459893266904E+00
 cg2d: Sum(rhs),rhsMax =  -9.92147448641845E-08  8.73978430818157E+00
 cg2d: Sum(rhs),rhsMax =  -9.91560966667748E-08  8.74499735837366E+00
 cg2d: Sum(rhs),rhsMax =  -9.90966526615011E-08  8.75023614706347E+00
 cg2d: Sum(rhs),rhsMax =  -9.90366970654577E-08  8.75549829188909E+00
 cg2d: Sum(rhs),rhsMax =  -9.89772743764661E-08  8.76078107848702E+00
 cg2d: Sum(rhs),rhsMax =  -9.89177024735000E-08  8.76608155580086E+00
 cg2d: Sum(rhs),rhsMax =  -9.88579742511320E-08  8.77139664107964E+00
 cg2d: Sum(rhs),rhsMax =  -9.87977060162848E-08  8.77672320795606E+00
 cg2d: Sum(rhs),rhsMax =  -9.87382264838743E-08  8.78205816635757E+00
(PID.TID 0000.0001) Did not write pickup because writePickupAtEnd = FALSE
 DIC_SURFFORCING_INIT, it=   3600000 : Reading new data, i0,i1=   12    1
 QQ: pCO2 approximation method
 QQ first guess pH 8.2869849781645275,  7.129213793781922,  34.1535348423009,  2.0282,  5.43799999999999991E-4,  8.08490416966378689E-3,  2.3086000000000002
(PID.TID 0000.0001) // =======================================================
(PID.TID 0000.0001) // Model current state
(PID.TID 0000.0001) // =======================================================
(PID.TID 0000.0001) 
 EXTERNAL_FIELDS_LOAD, it=   3600000 : Reading new data, i0,i1=   12    1 (prev=   12    0 )
 DIC_FIELDS_LOAD, it=   3600000 : Reading new data, i0,i1=   12    1 (prev=   12    0 )
 cg2d: Sum(rhs),rhsMax =  -9.92433868418630E-08  8.73439671821315E+00
 cg2d: Sum(rhs),rhsMax =  -9.91844260056496E-08  8.73957958587058E+00
 cg2d: Sum(rhs),rhsMax =  -9.91252449011881E-08  8.74478969091806E+00
 cg2d: Sum(rhs),rhsMax =  -9.90665185440776E-08  8.75002495477880E+00
 cg2d: Sum(rhs),rhsMax =  -9.90068542705558E-08  8.75528284057604E+00
 cg2d: Sum(rhs),rhsMax =  -9.89473534218632E-08  8.76056047500076E+00
 cg2d: Sum(rhs),rhsMax =  -9.88878241514612E-08  8.76585475900637E+00
 cg2d: Sum(rhs),rhsMax =  -9.88279893476829E-08  8.77116249138180E+00
 cg2d: Sum(rhs),rhsMax =  -9.87682469144602E-08  8.77648047471154E+00
 cg2d: Sum(rhs),rhsMax =  -9.87087602766223E-08  8.78180560756084E+00
 cg2d: Sum(rhs),rhsMax =  -9.86489112619893E-08  8.78713494778165E+00
 cg2d: Sum(rhs),rhsMax =  -9.85891404070571E-08  8.79246575399440E+00
 cg2d: Sum(rhs),rhsMax =  -9.85293340249882E-08  8.79779549299699E+00
 cg2d: Sum(rhs),rhsMax =  -9.84700747608258E-08  8.80312181092759E+00
 cg2d: Sum(rhs),rhsMax =  -9.84108581292276E-08  8.80844249631459E+00
 cg2d: Sum(rhs),rhsMax =  -9.83516486030567E-08  8.81375547068360E+00
 cg2d: Sum(rhs),rhsMax =  -9.82926522397065E-08  8.81905885446822E+00
 cg2d: Sum(rhs),rhsMax =  -9.82337553523394E-08  8.82435106608147E+00
 cg2d: Sum(rhs),rhsMax =  -9.81751568929212E-08  8.82963093738125E+00
 cg2d: Sum(rhs),rhsMax =  -9.81166650149135E-08  8.83489782452132E+00
 cg2d: Sum(rhs),rhsMax =  -9.80585213028462E-08  8.84015168145881E+00
 cg2d: Sum(rhs),rhsMax =  -9.80007470730015E-08  8.84539306572338E+00
 cg2d: Sum(rhs),rhsMax =  -9.79429586323022E-08  8.85062306296846E+00
 cg2d: Sum(rhs),rhsMax =  -9.78853904598509E-08  8.85584316140559E+00
 cg2d: Sum(rhs),rhsMax =  -9.78280425556477E-08  8.86105508303604E+00
 cg2d: Sum(rhs),rhsMax =  -9.77709291305473E-08  8.86626061391844E+00
 cg2d: Sum(rhs),rhsMax =  -9.77132472712583E-08  8.87146147123075E+00
 cg2d: Sum(rhs),rhsMax =  -9.76563327981239E-08  8.87665923110881E+00
 cg2d: Sum(rhs),rhsMax =  -9.75990843699037E-08  8.88185530584736E+00
 cg2d: Sum(rhs),rhsMax =  -9.75420704207863E-08  8.88705095973601E+00
 EXTERNAL_FIELDS_LOAD, it=   3600030 : Reading new data, i0,i1=    1    2 (prev=   12    1 )
 DIC_FIELDS_LOAD, it=   3600030 : Reading new data, i0,i1=    1    2 (prev=   12    1 )
 cg2d: Sum(rhs),rhsMax =  -9.74853406887632E-08  8.89224735691429E+00
 cg2d: Sum(rhs),rhsMax =  -9.74287814869967E-08  8.89742706375180E+00
 cg2d: Sum(rhs),rhsMax =  -9.73723857100595E-08  8.90258000132907E+00
 cg2d: Sum(rhs),rhsMax =  -9.73164659967551E-08  8.90769672951691E+00
 cg2d: Sum(rhs),rhsMax =  -9.72612284044772E-08  8.91276878246959E+00
 cg2d: Sum(rhs),rhsMax =  -9.72070637317302E-08  8.91778889429735E+00
 cg2d: Sum(rhs),rhsMax =  -9.71530482729577E-08  8.92275113682099E+00
 cg2d: Sum(rhs),rhsMax =  -9.70993241367069E-08  8.92765100404361E+00
 cg2d: Sum(rhs),rhsMax =  -9.70471916161841E-08  8.93248545016401E+00
 cg2d: Sum(rhs),rhsMax =  -9.69955280538670E-08  8.93725287491615E+00
 cg2d: Sum(rhs),rhsMax =  -9.69441273923621E-08  8.94195305183593E+00
 cg2d: Sum(rhs),rhsMax =  -9.68941833434656E-08  8.94658701582531E+00
 cg2d: Sum(rhs),rhsMax =  -9.68450208915783E-08  8.95115692214719E+00
 cg2d: Sum(rhs),rhsMax =  -9.67962705544778E-08  8.95566589123099E+00
 cg2d: Sum(rhs),rhsMax =  -9.67482165492584E-08  8.96011786358850E+00
 cg2d: Sum(rhs),rhsMax =  -9.67008020325011E-08  8.96451747891563E+00
 cg2d: Sum(rhs),rhsMax =  -9.66539346336504E-08  8.96886998187158E+00
 cg2d: Sum(rhs),rhsMax =  -9.66078843589457E-08  8.97318115409823E+00
 cg2d: Sum(rhs),rhsMax =  -9.65621254067628E-08  8.97745726495199E+00
 cg2d: Sum(rhs),rhsMax =  -9.65159685506478E-08  8.98170502198163E+00
 cg2d: Sum(rhs),rhsMax =  -9.64709272466280E-08  8.98593151889555E+00
 cg2d: Sum(rhs),rhsMax =  -9.64258006774799E-08  8.99014423145949E+00
 cg2d: Sum(rhs),rhsMax =  -9.63806954246138E-08  8.99435085408351E+00
 cg2d: Sum(rhs),rhsMax =  -9.63354978011921E-08  8.99855914272681E+00
 cg2d: Sum(rhs),rhsMax =  -9.62904493917449E-08  9.00277662786875E+00
 cg2d: Sum(rhs),rhsMax =  -9.62449746566563E-08  9.00700998220796E+00
 cg2d: Sum(rhs),rhsMax =  -9.61997557169525E-08  9.01126574761483E+00
 cg2d: Sum(rhs),rhsMax =  -9.61540180810516E-08  9.01555039729210E+00
 cg2d: Sum(rhs),rhsMax =  -9.61077120109621E-08  9.01986971435378E+00
 cg2d: Sum(rhs),rhsMax =  -9.60613775191632E-08  9.02422880815445E+00
 cg2d: Sum(rhs),rhsMax =  -9.60143182737738E-08  9.02863205182447E+00
 cg2d: Sum(rhs),rhsMax =  -9.59668398081703E-08  9.03308295193821E+00
 cg2d: Sum(rhs),rhsMax =  -9.59189492277801E-08  9.03758400719746E+00
 cg2d: Sum(rhs),rhsMax =  -9.58706323217484E-08  9.04213663854453E+00
 cg2d: Sum(rhs),rhsMax =  -9.58215622404168E-08  9.04674109185253E+00
 cg2d: Sum(rhs),rhsMax =  -9.57721724148541E-08  9.05139640217902E+00
 cg2d: Sum(rhs),rhsMax =  -9.57223775799321E-08  9.05610040614876E+00
 cg2d: Sum(rhs),rhsMax =  -9.56718224642827E-08  9.06084979109159E+00
 cg2d: Sum(rhs),rhsMax =  -9.56211039238042E-08  9.06564017672268E+00
 cg2d: Sum(rhs),rhsMax =  -9.55700798499493E-08  9.07046622792088E+00
 cg2d: Sum(rhs),rhsMax =  -9.55189918272481E-08  9.07532179655311E+00
 cg2d: Sum(rhs),rhsMax =  -9.54672145780933E-08  9.08020008054443E+00
 cg2d: Sum(rhs),rhsMax =  -9.54156860188959E-08  9.08509379067778E+00
 cg2d: Sum(rhs),rhsMax =  -9.53640864054250E-08  9.08999532389517E+00
 cg2d: Sum(rhs),rhsMax =  -9.53120391500306E-08  9.09489685062687E+00
 cg2d: Sum(rhs),rhsMax =  -9.52604963799786E-08  9.09979078670731E+00
 cg2d: Sum(rhs),rhsMax =  -9.52091738781746E-08  9.10466952325132E+00
 cg2d: Sum(rhs),rhsMax =  -9.51581995423112E-08  9.10952586151125E+00
 cg2d: Sum(rhs),rhsMax =  -9.51075378452515E-08  9.11435305322486E+00
 cg2d: Sum(rhs),rhsMax =  -9.50568974644739E-08  9.11914489544444E+00
 cg2d: Sum(rhs),rhsMax =  -9.50070173644235E-08  9.12389583482653E+00
 cg2d: Sum(rhs),rhsMax =  -9.49582670273230E-08  9.12860106773695E+00
 cg2d: Sum(rhs),rhsMax =  -9.49094669522310E-08  9.13325671324743E+00
 cg2d: Sum(rhs),rhsMax =  -9.48612637330370E-08  9.13785989332165E+00
 cg2d: Sum(rhs),rhsMax =  -9.48139060596986E-08  9.14240888612431E+00
 cg2d: Sum(rhs),rhsMax =  -9.47671381368309E-08  9.14690322805975E+00
 cg2d: Sum(rhs),rhsMax =  -9.47210025969980E-08  9.15134376400067E+00
 cg2d: Sum(rhs),rhsMax =  -9.46753857533622E-08  9.15573262291172E+00
 cg2d: Sum(rhs),rhsMax =  -9.46305078741716E-08  9.16007311317651E+00
 cg2d: Sum(rhs),rhsMax =  -9.45855020972886E-08  9.16436954661381E+00
 EXTERNAL_FIELDS_LOAD, it=   3600090 : Reading new data, i0,i1=    2    3 (prev=    1    2 )
 DIC_FIELDS_LOAD, it=   3600090 : Reading new data, i0,i1=    2    3 (prev=    1    2 )
 cg2d: Sum(rhs),rhsMax =  -9.45416047670733E-08  9.16862700792054E+00
 cg2d: Sum(rhs),rhsMax =  -9.44977784911316E-08  9.17286965792043E+00
 cg2d: Sum(rhs),rhsMax =  -9.44538882663437E-08  9.17711460232796E+00
 cg2d: Sum(rhs),rhsMax =  -9.44097777733077E-08  9.18137827264839E+00
 cg2d: Sum(rhs),rhsMax =  -9.43655606988614E-08  9.18567586102450E+00
 cg2d: Sum(rhs),rhsMax =  -9.43208533499273E-08  9.19002086507332E+00
 cg2d: Sum(rhs),rhsMax =  -9.42755065125311E-08  9.19442473147613E+00
 cg2d: Sum(rhs),rhsMax =  -9.42294988703907E-08  9.19889660310093E+00
 cg2d: Sum(rhs),rhsMax =  -9.41831217460276E-08  9.20344317156002E+00
 cg2d: Sum(rhs),rhsMax =  -9.41357711781166E-08  9.20806863385625E+00
 cg2d: Sum(rhs),rhsMax =  -9.40875679589226E-08  9.21277472508850E+00
 cg2d: Sum(rhs),rhsMax =  -9.40387323566938E-08  9.21756082935263E+00
 cg2d: Sum(rhs),rhsMax =  -9.39891506845925E-08  9.22242415169496E+00
 cg2d: Sum(rhs),rhsMax =  -9.39387589937724E-08  9.22735992735964E+00
 cg2d: Sum(rhs),rhsMax =  -9.38874578082505E-08  9.23236166048178E+00
 cg2d: Sum(rhs),rhsMax =  -9.38360713576003E-08  9.23742136926884E+00
 cg2d: Sum(rhs),rhsMax =  -9.37847204340869E-08  9.24252982829311E+00
 cg2d: Sum(rhs),rhsMax =  -9.37326518624104E-08  9.24767682825910E+00
 cg2d: Sum(rhs),rhsMax =  -9.36799651185538E-08  9.25285135651627E+00
 cg2d: Sum(rhs),rhsMax =  -9.36278468088858E-08  9.25804181556396E+00
 cg2d: Sum(rhs),rhsMax =  -9.35753803332773E-08  9.26323624437734E+00
 cg2d: Sum(rhs),rhsMax =  -9.35233543941649E-08  9.26842252954541E+00
 cg2d: Sum(rhs),rhsMax =  -9.34712076627875E-08  9.27358855590945E+00
 cg2d: Sum(rhs),rhsMax =  -9.34198851609835E-08  9.27872221865362E+00
 cg2d: Sum(rhs),rhsMax =  -9.33687331894362E-08  9.28381269175841E+00
 cg2d: Sum(rhs),rhsMax =  -9.33183130769066E-08  9.28884990364347E+00
 cg2d: Sum(rhs),rhsMax =  -9.32684542931383E-08  9.29382460831193E+00
 cg2d: Sum(rhs),rhsMax =  -9.32194410552256E-08  9.29872876125425E+00
 cg2d: Sum(rhs),rhsMax =  -9.31711383600486E-08  9.30355578941157E+00
 cg2d: Sum(rhs),rhsMax =  -9.31240364820951E-08  9.30830071441787E+00
 cg2d: Sum(rhs),rhsMax =  -9.30773893514925E-08  9.31296016039586E+00
 cg2d: Sum(rhs),rhsMax =  -9.30318719838397E-08  9.31753230345820E+00
 cg2d: Sum(rhs),rhsMax =  -9.29872783217434E-08  9.32201677457960E+00
 cg2d: Sum(rhs),rhsMax =  -9.29437931063148E-08  9.32641453687162E+00
 cg2d: Sum(rhs),rhsMax =  -9.29007910599466E-08  9.33072777407330E+00
 cg2d: Sum(rhs),rhsMax =  -9.28590253579387E-08  9.33495977832897E+00
 cg2d: Sum(rhs),rhsMax =  -9.28177001924269E-08  9.33911483571782E+00
 cg2d: Sum(rhs),rhsMax =  -9.27770358316593E-08  9.34319809772528E+00
 cg2d: Sum(rhs),rhsMax =  -9.27373591252945E-08  9.34721542637213E+00
 cg2d: Sum(rhs),rhsMax =  -9.26982295368362E-08  9.35117321728378E+00
 cg2d: Sum(rhs),rhsMax =  -9.26594978523099E-08  9.35507820898651E+00
 cg2d: Sum(rhs),rhsMax =  -9.26212777585533E-08  9.35893728101038E+00
 cg2d: Sum(rhs),rhsMax =  -9.25836900478316E-08  9.36275724876052E+00
 cg2d: Sum(rhs),rhsMax =  -9.25467347201447E-08  9.36654466497940E+00
 cg2d: Sum(rhs),rhsMax =  -9.25093388559617E-08  9.37030563739009E+00
 cg2d: Sum(rhs),rhsMax =  -9.24723693174201E-08  9.37404566529748E+00
 cg2d: Sum(rhs),rhsMax =  -9.24358261045199E-08  9.37776950669782E+00
 cg2d: Sum(rhs),rhsMax =  -9.23998015878169E-08  9.38148107939576E+00
 cg2d: Sum(rhs),rhsMax =  -9.23633649563271E-08  9.38518340080342E+00
 cg2d: Sum(rhs),rhsMax =  -9.23271628039402E-08  9.38887856431341E+00
 cg2d: Sum(rhs),rhsMax =  -9.22907545941598E-08  9.39256775253961E+00
 cg2d: Sum(rhs),rhsMax =  -9.22549361348501E-08  9.39625127829926E+00
 cg2d: Sum(rhs),rhsMax =  -9.22186487173349E-08  9.39992865313115E+00
 cg2d: Sum(rhs),rhsMax =  -9.21831713185384E-08  9.40359867110262E+00
 cg2d: Sum(rhs),rhsMax =  -9.21473457538013E-08  9.40725949891390E+00
 cg2d: Sum(rhs),rhsMax =  -9.21119038821416E-08  9.41090875978471E+00
 cg2d: Sum(rhs),rhsMax =  -9.20763412182168E-08  9.41454361858659E+00
 cg2d: Sum(rhs),rhsMax =  -9.20410343496769E-08  9.41816086827301E+00
 cg2d: Sum(rhs),rhsMax =  -9.20060685416502E-08  9.42175701532902E+00
 cg2d: Sum(rhs),rhsMax =  -9.19711879987517E-08  9.42532836100955E+00
 EXTERNAL_FIELDS_LOAD, it=   3600150 : Reading new data, i0,i1=    3    4 (prev=    2    3 )
 DIC_FIELDS_LOAD, it=   3600150 : Reading new data, i0,i1=    3    4 (prev=    2    3 )
 cg2d: Sum(rhs),rhsMax =  -9.19367622032041E-08  9.42887108055882E+00
 cg2d: Sum(rhs),rhsMax =  -9.19030327395376E-08  9.43235832256638E+00
 cg2d: Sum(rhs),rhsMax =  -9.18696727580937E-08  9.43577294710938E+00
 cg2d: Sum(rhs),rhsMax =  -9.18375349101552E-08  9.43909901719340E+00
 cg2d: Sum(rhs),rhsMax =  -9.18056457521743E-08  9.44232226351574E+00
 cg2d: Sum(rhs),rhsMax =  -9.17754618967592E-08  9.44543045713848E+00
 cg2d: Sum(rhs),rhsMax =  -9.17468696570722E-08  9.44841368652191E+00
 cg2d: Sum(rhs),rhsMax =  -9.17188671678559E-08  9.45126453300903E+00
 cg2d: Sum(rhs),rhsMax =  -9.16929749905648E-08  9.45397814472091E+00
 cg2d: Sum(rhs),rhsMax =  -9.16680278351123E-08  9.45655223330268E+00
 cg2d: Sum(rhs),rhsMax =  -9.16445941356869E-08  9.45898700078271E+00
 cg2d: Sum(rhs),rhsMax =  -9.16223754643397E-08  9.46128500172268E+00
 cg2d: Sum(rhs),rhsMax =  -9.16011231311131E-08  9.46345095767279E+00
 cg2d: Sum(rhs),rhsMax =  -9.15811568802383E-08  9.46549153513779E+00
 cg2d: Sum(rhs),rhsMax =  -9.15625619768434E-08  9.46741508859273E+00
 cg2d: Sum(rhs),rhsMax =  -9.15451252581079E-08  9.46923137659912E+00
 cg2d: Sum(rhs),rhsMax =  -9.15285980340741E-08  9.47095124324780E+00
 cg2d: Sum(rhs),rhsMax =  -9.15126108225195E-08  9.47258633929544E+00
 cg2d: Sum(rhs),rhsMax =  -9.14974762622478E-08  9.47414881667898E+00
 cg2d: Sum(rhs),rhsMax =  -9.14831588261222E-08  9.47565102854520E+00
 cg2d: Sum(rhs),rhsMax =  -9.14691185016636E-08  9.47710524161440E+00
 cg2d: Sum(rhs),rhsMax =  -9.14552913400257E-08  9.47852337330871E+00
 cg2d: Sum(rhs),rhsMax =  -9.14417910280463E-08  9.47991675839448E+00
 cg2d: Sum(rhs),rhsMax =  -9.14288023068366E-08  9.48129594936036E+00
 cg2d: Sum(rhs),rhsMax =  -9.14153162057119E-08  9.48267055268677E+00
 cg2d: Sum(rhs),rhsMax =  -9.14016951014673E-08  9.48404910672501E+00
 cg2d: Sum(rhs),rhsMax =  -9.13883866360266E-08  9.48543898881096E+00
 cg2d: Sum(rhs),rhsMax =  -9.13749147457565E-08  9.48684634838855E+00
 cg2d: Sum(rhs),rhsMax =  -9.13611231112554E-08  9.48827608016959E+00
 cg2d: Sum(rhs),rhsMax =  -9.13465854068818E-08  9.48973182637241E+00
 cg2d: Sum(rhs),rhsMax =  -9.13324456064402E-08  9.49121598932757E+00
 cg2d: Sum(rhs),rhsMax =  -9.13176805283911E-08  9.49272976482376E+00
 cg2d: Sum(rhs),rhsMax =  -9.13029793991882E-08  9.49427318407705E+00
 cg2d: Sum(rhs),rhsMax =  -9.12876600978052E-08  9.49584517202971E+00
 cg2d: Sum(rhs),rhsMax =  -9.12722768475760E-08  9.49744362566448E+00
 cg2d: Sum(rhs),rhsMax =  -9.12563962174318E-08  9.49906550905340E+00
 cg2d: Sum(rhs),rhsMax =  -9.12406292741252E-08  9.50070696299551E+00
 cg2d: Sum(rhs),rhsMax =  -9.12245567974423E-08  9.50236342680402E+00
 cg2d: Sum(rhs),rhsMax =  -9.12086122184519E-08  9.50402976802920E+00
 cg2d: Sum(rhs),rhsMax =  -9.11920636781360E-08  9.50570042893596E+00
 cg2d: Sum(rhs),rhsMax =  -9.11760835720088E-08  9.50736956748404E+00
 cg2d: Sum(rhs),rhsMax =  -9.11599897790438E-08  9.50903122489705E+00
 cg2d: Sum(rhs),rhsMax =  -9.11439812512072E-08  9.51067944299842E+00
 cg2d: Sum(rhs),rhsMax =  -9.11286619498242E-08  9.51230836255520E+00
 cg2d: Sum(rhs),rhsMax =  -9.11128452685261E-08  9.51391232343393E+00
 cg2d: Sum(rhs),rhsMax =  -9.10978172896648E-08  9.51548598638282E+00
 cg2d: Sum(rhs),rhsMax =  -9.10825903588375E-08  9.51702443978652E+00
 cg2d: Sum(rhs),rhsMax =  -9.10679744947629E-08  9.51852327194360E+00
 cg2d: Sum(rhs),rhsMax =  -9.10538062726118E-08  9.51997861079381E+00
 cg2d: Sum(rhs),rhsMax =  -9.10403272769145E-08  9.52138713289450E+00
 cg2d: Sum(rhs),rhsMax =  -9.10271680254482E-08  9.52274605554116E+00
 cg2d: Sum(rhs),rhsMax =  -9.10143498344951E-08  9.52405313717331E+00
 cg2d: Sum(rhs),rhsMax =  -9.10022919242692E-08  9.52530666028232E+00
 cg2d: Sum(rhs),rhsMax =  -9.09905324419924E-08  9.52650541109617E+00
 cg2d: Sum(rhs),rhsMax =  -9.09794692915966E-08  9.52764864727963E+00
 cg2d: Sum(rhs),rhsMax =  -9.09689816808168E-08  9.52873605079492E+00
 cg2d: Sum(rhs),rhsMax =  -9.09588422359775E-08  9.52976767849440E+00
 cg2d: Sum(rhs),rhsMax =  -9.09493280687457E-08  9.53074391639987E+00
 cg2d: Sum(rhs),rhsMax =  -9.09404391791213E-08  9.53166530103624E+00
 cg2d: Sum(rhs),rhsMax =  -9.09316284491979E-08  9.53253252588939E+00
 EXTERNAL_FIELDS_LOAD, it=   3600210 : Reading new data, i0,i1=    4    5 (prev=    3    4 )
 DIC_FIELDS_LOAD, it=   3600210 : Reading new data, i0,i1=    4    5 (prev=    3    4 )
 cg2d: Sum(rhs),rhsMax =  -9.09236845814121E-08  9.53334634295211E+00
 cg2d: Sum(rhs),rhsMax =  -9.09162238826866E-08  9.53412016630968E+00
 cg2d: Sum(rhs),rhsMax =  -9.09088555545168E-08  9.53486144691540E+00
 cg2d: Sum(rhs),rhsMax =  -9.09020556605356E-08  9.53557668814411E+00
 cg2d: Sum(rhs),rhsMax =  -9.08950781308704E-08  9.53626990934916E+00
 cg2d: Sum(rhs),rhsMax =  -9.08885269268467E-08  9.53694479201801E+00
 cg2d: Sum(rhs),rhsMax =  -9.08819686173956E-08  9.53760402798875E+00
 cg2d: Sum(rhs),rhsMax =  -9.08758792661502E-08  9.53824943192211E+00
 cg2d: Sum(rhs),rhsMax =  -9.08692001644340E-08  9.53888215688552E+00
 cg2d: Sum(rhs),rhsMax =  -9.08633310814366E-08  9.53950304357000E+00
 cg2d: Sum(rhs),rhsMax =  -9.08575117364308E-08  9.54011304176576E+00
 cg2d: Sum(rhs),rhsMax =  -9.08516142317239E-08  9.54071301635899E+00
 cg2d: Sum(rhs),rhsMax =  -9.08458943627011E-08  9.54130322912294E+00
 cg2d: Sum(rhs),rhsMax =  -9.08400252797037E-08  9.54188272003942E+00
 cg2d: Sum(rhs),rhsMax =  -9.08349306882883E-08  9.54244934290944E+00
 cg2d: Sum(rhs),rhsMax =  -9.08295305634965E-08  9.54299999628384E+00
 cg2d: Sum(rhs),rhsMax =  -9.08241872821236E-08  9.54353092308816E+00
 cg2d: Sum(rhs),rhsMax =  -9.08189861092978E-08  9.54403796863502E+00
 cg2d: Sum(rhs),rhsMax =  -9.08142894218145E-08  9.54451678452915E+00
 cg2d: Sum(rhs),rhsMax =  -9.08097916862971E-08  9.54496303374895E+00
 cg2d: Sum(rhs),rhsMax =  -9.08056705384297E-08  9.54537256688658E+00
 cg2d: Sum(rhs),rhsMax =  -9.08016417611179E-08  9.54574155534994E+00
 cg2d: Sum(rhs),rhsMax =  -9.07979256226099E-08  9.54606657177462E+00
 cg2d: Sum(rhs),rhsMax =  -9.07952681927782E-08  9.54634467959792E+00
 cg2d: Sum(rhs),rhsMax =  -9.07924189164078E-08  9.54657345840157E+00
 cg2d: Sum(rhs),rhsMax =  -9.07902162339269E-08  9.54675102924543E+00
 cg2d: Sum(rhs),rhsMax =  -9.07886743561903E-08  9.54687605379506E+00
 cg2d: Sum(rhs),rhsMax =  -9.07877648614885E-08  9.54694771403842E+00
 cg2d: Sum(rhs),rhsMax =  -9.07869193156330E-08  9.54696566951997E+00
 cg2d: Sum(rhs),rhsMax =  -9.07865995714019E-08  9.54692999068711E+00
 cg2d: Sum(rhs),rhsMax =  -9.07872106381546E-08  9.54684108541375E+00
 cg2d: Sum(rhs),rhsMax =  -9.07884682987969E-08  9.54669963264824E+00
 cg2d: Sum(rhs),rhsMax =  -9.07898467517043E-08  9.54650651972953E+00
 cg2d: Sum(rhs),rhsMax =  -9.07915449488428E-08  9.54626274758502E+00
 cg2d: Sum(rhs),rhsMax =  -9.07941455352557E-08  9.54596935750525E+00
 cg2d: Sum(rhs),rhsMax =  -9.07970800767544E-08  9.54562738075971E+00
 cg2d: Sum(rhs),rhsMax =  -9.08000501453898E-08  9.54523778248193E+00
 cg2d: Sum(rhs),rhsMax =  -9.08038089164620E-08  9.54480140259877E+00
 cg2d: Sum(rhs),rhsMax =  -9.08078732209106E-08  9.54431888382345E+00
 cg2d: Sum(rhs),rhsMax =  -9.08128896526250E-08  9.54379063440704E+00
 cg2d: Sum(rhs),rhsMax =  -9.08179274006216E-08  9.54321682610369E+00
 cg2d: Sum(rhs),rhsMax =  -9.08231072571652E-08  9.54259741627488E+00
 cg2d: Sum(rhs),rhsMax =  -9.08294239820862E-08  9.54193218180504E+00
 cg2d: Sum(rhs),rhsMax =  -9.08357407070071E-08  9.54122075566689E+00
 cg2d: Sum(rhs),rhsMax =  -9.08426116552619E-08  9.54046266149910E+00
 cg2d: Sum(rhs),rhsMax =  -9.08497668206110E-08  9.53965734943055E+00
 cg2d: Sum(rhs),rhsMax =  -9.08576467395505E-08  9.53880424419014E+00
 cg2d: Sum(rhs),rhsMax =  -9.08659032461401E-08  9.53790282192021E+00
 cg2d: Sum(rhs),rhsMax =  -9.08746713434994E-08  9.53695268180845E+00
 cg2d: Sum(rhs),rhsMax =  -9.08840078750472E-08  9.53595362230667E+00
 cg2d: Sum(rhs),rhsMax =  -9.08936215182621E-08  9.53490571447803E+00
 cg2d: Sum(rhs),rhsMax =  -9.09042654484438E-08  9.53380930168364E+00
 cg2d: Sum(rhs),rhsMax =  -9.09145470018302E-08  9.53266493640869E+00
 cg2d: Sum(rhs),rhsMax =  -9.09259227910297E-08  9.53147332889492E+00
 cg2d: Sum(rhs),rhsMax =  -9.09384141323244E-08  9.53023537646442E+00
 cg2d: Sum(rhs),rhsMax =  -9.09505217805417E-08  9.52895220993865E+00
 cg2d: Sum(rhs),rhsMax =  -9.09629278567081E-08  9.52762520262973E+00
 cg2d: Sum(rhs),rhsMax =  -9.09757815747980E-08  9.52625594300855E+00
 cg2d: Sum(rhs),rhsMax =  -9.09892747813501E-08  9.52484621149773E+00
 cg2d: Sum(rhs),rhsMax =  -9.10029882561503E-08  9.52339794221070E+00
 EXTERNAL_FIELDS_LOAD, it=   3600270 : Reading new data, i0,i1=    5    6 (prev=    4    5 )
 DIC_FIELDS_LOAD, it=   3600270 : Reading new data, i0,i1=    5    6 (prev=    4    5 )
 cg2d: Sum(rhs),rhsMax =  -9.10169930534721E-08  9.52191318167782E+00
 cg2d: Sum(rhs),rhsMax =  -9.10311257484864E-08  9.52041761022813E+00
 cg2d: Sum(rhs),rhsMax =  -9.10455213443129E-08  9.51892843351038E+00
 cg2d: Sum(rhs),rhsMax =  -9.10593485059508E-08  9.51746258399289E+00
 cg2d: Sum(rhs),rhsMax =  -9.10729625047679E-08  9.51603636817957E+00
 cg2d: Sum(rhs),rhsMax =  -9.10860507019606E-08  9.51466517931999E+00
 cg2d: Sum(rhs),rhsMax =  -9.10986344138109E-08  9.51336322967766E+00
 cg2d: Sum(rhs),rhsMax =  -9.11102233658312E-08  9.51214329321166E+00
 cg2d: Sum(rhs),rhsMax =  -9.11212367782355E-08  9.51101645114812E+00
 cg2d: Sum(rhs),rhsMax =  -9.11308219997409E-08  9.50999185515969E+00
 cg2d: Sum(rhs),rhsMax =  -9.11397606273567E-08  9.50907652378690E+00
 cg2d: Sum(rhs),rhsMax =  -9.11473847509114E-08  9.50827517814543E+00
 cg2d: Sum(rhs),rhsMax =  -9.11540354309182E-08  9.50759014752173E+00
 cg2d: Sum(rhs),rhsMax =  -9.11595421371203E-08  9.50702134377118E+00
 cg2d: Sum(rhs),rhsMax =  -9.11640682943471E-08  9.50656629011210E+00
 cg2d: Sum(rhs),rhsMax =  -9.11673012637948E-08  9.50622019182364E+00
 cg2d: Sum(rhs),rhsMax =  -9.11696744765322E-08  9.50597606771963E+00
 cg2d: Sum(rhs),rhsMax =  -9.11708539774736E-08  9.50582494250500E+00
 cg2d: Sum(rhs),rhsMax =  -9.11716497853376E-08  9.50575608648473E+00
 cg2d: Sum(rhs),rhsMax =  -9.11714224116622E-08  9.50575729587021E+00
 cg2d: Sum(rhs),rhsMax =  -9.11708468720462E-08  9.50581523373235E+00
 cg2d: Sum(rhs),rhsMax =  -9.11699018502077E-08  9.50591575069248E+00
 cg2d: Sum(rhs),rhsMax =  -9.11685589244371E-08  9.50604420974297E+00
 cg2d: Sum(rhs),rhsMax =  -9.11669744141363E-08  9.50618583284504E+00
 cg2d: Sum(rhs),rhsMax =  -9.11656883317846E-08  9.50632606101357E+00
 cg2d: Sum(rhs),rhsMax =  -9.11643525114414E-08  9.50645090757042E+00
 cg2d: Sum(rhs),rhsMax =  -9.11635567035773E-08  9.50654729113363E+00
 cg2d: Sum(rhs),rhsMax =  -9.11632938027651E-08  9.50660334354173E+00
 cg2d: Sum(rhs),rhsMax =  -9.11633009081925E-08  9.50660868062301E+00
 cg2d: Sum(rhs),rhsMax =  -9.11639332912273E-08  9.50655462562515E+00
 cg2d: Sum(rhs),rhsMax =  -9.11649706836215E-08  9.50643436311089E+00
 cg2d: Sum(rhs),rhsMax =  -9.11672302095212E-08  9.50624304674150E+00
 cg2d: Sum(rhs),rhsMax =  -9.11696460548228E-08  9.50597781905916E+00
 cg2d: Sum(rhs),rhsMax =  -9.11727440211507E-08  9.50563777710892E+00
 cg2d: Sum(rhs),rhsMax =  -9.11770854372662E-08  9.50522393135291E+00
 cg2d: Sum(rhs),rhsMax =  -9.11816186999204E-08  9.50473911463816E+00
 cg2d: Sum(rhs),rhsMax =  -9.11870614572763E-08  9.50418773930678E+00
 cg2d: Sum(rhs),rhsMax =  -9.11928168534359E-08  9.50357558691374E+00
 cg2d: Sum(rhs),rhsMax =  -9.11992827923314E-08  9.50290964447458E+00
 cg2d: Sum(rhs),rhsMax =  -9.12065729608003E-08  9.50219791542795E+00
 cg2d: Sum(rhs),rhsMax =  -9.12139270781154E-08  9.50144918276843E+00
 cg2d: Sum(rhs),rhsMax =  -9.12212811954305E-08  9.50067274580360E+00
 cg2d: Sum(rhs),rhsMax =  -9.12293955934729E-08  9.49987815929010E+00
 cg2d: Sum(rhs),rhsMax =  -9.12369131356172E-08  9.49907498366882E+00
 cg2d: Sum(rhs),rhsMax =  -9.12447788437021E-08  9.49827255755378E+00
 cg2d: Sum(rhs),rhsMax =  -9.12528008711888E-08  9.49747978836020E+00
 cg2d: Sum(rhs),rhsMax =  -9.12602686753416E-08  9.49670496341604E+00
 cg2d: Sum(rhs),rhsMax =  -9.12679780640246E-08  9.49595558374171E+00
 cg2d: Sum(rhs),rhsMax =  -9.12747850634332E-08  9.49523821505845E+00
 cg2d: Sum(rhs),rhsMax =  -9.12811941589098E-08  9.49455836839740E+00
 cg2d: Sum(rhs),rhsMax =  -9.12878306280618E-08  9.49392042323925E+00
 cg2d: Sum(rhs),rhsMax =  -9.12937139219139E-08  9.49332754785973E+00
 cg2d: Sum(rhs),rhsMax =  -9.12992632606802E-08  9.49278165465699E+00
 cg2d: Sum(rhs),rhsMax =  -9.13035833605136E-08  9.49228339433203E+00
 cg2d: Sum(rhs),rhsMax =  -9.13086424247922E-08  9.49183218209292E+00
 cg2d: Sum(rhs),rhsMax =  -9.13127422563775E-08  9.49142625728328E+00
 cg2d: Sum(rhs),rhsMax =  -9.13163518134752E-08  9.49106276286301E+00
 cg2d: Sum(rhs),rhsMax =  -9.13194782015125E-08  9.49073783789306E+00
 cg2d: Sum(rhs),rhsMax =  -9.13225406407037E-08  9.49044672400271E+00
 cg2d: Sum(rhs),rhsMax =  -9.13253046519458E-08  9.49018390323782E+00
 EXTERNAL_FIELDS_LOAD, it=   3600330 : Reading new data, i0,i1=    6    7 (prev=    5    6 )
 DIC_FIELDS_LOAD, it=   3600330 : Reading new data, i0,i1=    6    7 (prev=    5    6 )
 cg2d: Sum(rhs),rhsMax =  -9.13276210212643E-08  9.48994325700856E+00
 cg2d: Sum(rhs),rhsMax =  -9.13303352945150E-08  9.48970801758053E+00
 cg2d: Sum(rhs),rhsMax =  -9.13328221940901E-08  9.48946471682098E+00
 cg2d: Sum(rhs),rhsMax =  -9.13353943587936E-08  9.48919980375378E+00
 cg2d: Sum(rhs),rhsMax =  -9.13383644274290E-08  9.48889996251626E+00
 cg2d: Sum(rhs),rhsMax =  -9.13418460868343E-08  9.48855235316500E+00
 cg2d: Sum(rhs),rhsMax =  -9.13461093432488E-08  9.48814487205053E+00
 cg2d: Sum(rhs),rhsMax =  -9.13508344524416E-08  9.48766639266868E+00
 cg2d: Sum(rhs),rhsMax =  -9.13563624749258E-08  9.48710698236420E+00
 cg2d: Sum(rhs),rhsMax =  -9.13624518261713E-08  9.48645808347463E+00
 cg2d: Sum(rhs),rhsMax =  -9.13698130489138E-08  9.48571268422533E+00
 cg2d: Sum(rhs),rhsMax =  -9.13783111400335E-08  9.48486545850383E+00
 cg2d: Sum(rhs),rhsMax =  -9.13876760932908E-08  9.48391285858374E+00
 cg2d: Sum(rhs),rhsMax =  -9.13977800109933E-08  9.48285315351105E+00
 cg2d: Sum(rhs),rhsMax =  -9.14093334358768E-08  9.48168641391458E+00
 cg2d: Sum(rhs),rhsMax =  -9.14215760872139E-08  9.48041445516485E+00
 cg2d: Sum(rhs),rhsMax =  -9.14348703418000E-08  9.47904073781749E+00
 cg2d: Sum(rhs),rhsMax =  -9.14490314585237E-08  9.47757022510765E+00
 cg2d: Sum(rhs),rhsMax =  -9.14641802296501E-08  9.47600920384239E+00
 cg2d: Sum(rhs),rhsMax =  -9.14802384954783E-08  9.47436507523804E+00
 cg2d: Sum(rhs),rhsMax =  -9.14970428311790E-08  9.47264612546539E+00
 cg2d: Sum(rhs),rhsMax =  -9.15143658630768E-08  9.47086128598380E+00
 cg2d: Sum(rhs),rhsMax =  -9.15317244221114E-08  9.46901988541289E+00
 cg2d: Sum(rhs),rhsMax =  -9.15503548526431E-08  9.46713139755286E+00
 cg2d: Sum(rhs),rhsMax =  -9.15688005420634E-08  9.46520519129246E+00
 cg2d: Sum(rhs),rhsMax =  -9.15879354579374E-08  9.46325027783096E+00
 cg2d: Sum(rhs),rhsMax =  -9.16070561629567E-08  9.46127510172983E+00
 cg2d: Sum(rhs),rhsMax =  -9.16269016215665E-08  9.45928736176468E+00
 cg2d: Sum(rhs),rhsMax =  -9.16458375854745E-08  9.45729384446051E+00
 cg2d: Sum(rhs),rhsMax =  -9.16652354021608E-08  9.45530032221759E+00
 cg2d: Sum(rhs),rhsMax =  -9.16847469056847E-08  9.45331147339530E+00
 cg2d: Sum(rhs),rhsMax =  -9.17041660386531E-08  9.45133082537812E+00
 cg2d: Sum(rhs),rhsMax =  -9.17234714847837E-08  9.44936073119909E+00
 cg2d: Sum(rhs),rhsMax =  -9.17423008672813E-08  9.44740238220463E+00
 cg2d: Sum(rhs),rhsMax =  -9.17614002560185E-08  9.44545585645758E+00
 cg2d: Sum(rhs),rhsMax =  -9.17801870059520E-08  9.44352020252140E+00
 cg2d: Sum(rhs),rhsMax =  -9.17989737558855E-08  9.44159355733174E+00
 cg2d: Sum(rhs),rhsMax =  -9.18179097197935E-08  9.43967327626014E+00
 cg2d: Sum(rhs),rhsMax =  -9.18367177860091E-08  9.43775607395104E+00
 cg2d: Sum(rhs),rhsMax =  -9.18552629514124E-08  9.43583817490269E+00
 cg2d: Sum(rhs),rhsMax =  -9.18742912858761E-08  9.43391546318717E+00
 cg2d: Sum(rhs),rhsMax =  -9.18933977800407E-08  9.43198362529795E+00
 cg2d: Sum(rhs),rhsMax =  -9.19123053222393E-08  9.43003828806143E+00
 cg2d: Sum(rhs),rhsMax =  -9.19319091963189E-08  9.42807514245689E+00
 cg2d: Sum(rhs),rhsMax =  -9.19516196518089E-08  9.42609005034801E+00
 cg2d: Sum(rhs),rhsMax =  -9.19711453661876E-08  9.42407914155286E+00
 cg2d: Sum(rhs),rhsMax =  -9.19916374186869E-08  9.42203890101561E+00
 cg2d: Sum(rhs),rhsMax =  -9.20122005254598E-08  9.41996625280574E+00
 cg2d: Sum(rhs),rhsMax =  -9.20328773190704E-08  9.41785862954787E+00
 cg2d: Sum(rhs),rhsMax =  -9.20541722848611E-08  9.41571402403211E+00
 cg2d: Sum(rhs),rhsMax =  -9.20761920042423E-08  9.41353104362712E+00
 cg2d: Sum(rhs),rhsMax =  -9.20975224971698E-08  9.41130897700722E+00
 cg2d: Sum(rhs),rhsMax =  -9.21202243375774E-08  9.40904782014454E+00
 cg2d: Sum(rhs),rhsMax =  -9.21427556477283E-08  9.40674826682519E+00
 cg2d: Sum(rhs),rhsMax =  -9.21658624974953E-08  9.40441167656376E+00
 cg2d: Sum(rhs),rhsMax =  -9.21897651551262E-08  9.40204003109270E+00
 cg2d: Sum(rhs),rhsMax =  -9.22136393910478E-08  9.39963588692061E+00
 cg2d: Sum(rhs),rhsMax =  -9.22377765277815E-08  9.39720232327049E+00
 cg2d: Sum(rhs),rhsMax =  -9.22617147125493E-08  9.39474287623570E+00
 cg2d: Sum(rhs),rhsMax =  -9.22866476571471E-08  9.39226147078604E+00
 EXTERNAL_FIELDS_LOAD, it=   3600390 : Reading new data, i0,i1=    7    8 (prev=    6    7 )
 DIC_FIELDS_LOAD, it=   3600390 : Reading new data, i0,i1=    7    8 (prev=    6    7 )
 cg2d: Sum(rhs),rhsMax =  -9.23120353490958E-08  9.38976233427929E+00
 cg2d: Sum(rhs),rhsMax =  -9.23369185557021E-08  9.38724381347799E+00
 cg2d: Sum(rhs),rhsMax =  -9.23620930848301E-08  9.38470550458213E+00
 cg2d: Sum(rhs),rhsMax =  -9.23878431535741E-08  9.38214640732935E+00
 cg2d: Sum(rhs),rhsMax =  -9.24133303215058E-08  9.37956498127073E+00
 cg2d: Sum(rhs),rhsMax =  -9.24395564538827E-08  9.37695924403383E+00
 cg2d: Sum(rhs),rhsMax =  -9.24659673273709E-08  9.37432689628576E+00
 cg2d: Sum(rhs),rhsMax =  -9.24926268908166E-08  9.37166545130188E+00
 cg2d: Sum(rhs),rhsMax =  -9.25199330481519E-08  9.36897236493602E+00
 cg2d: Sum(rhs),rhsMax =  -9.25472107837777E-08  9.36624514198210E+00
 cg2d: Sum(rhs),rhsMax =  -9.25749148450450E-08  9.36348144222541E+00
 cg2d: Sum(rhs),rhsMax =  -9.26027894365689E-08  9.36067916467522E+00
 cg2d: Sum(rhs),rhsMax =  -9.26316801042049E-08  9.35783651518778E+00
 cg2d: Sum(rhs),rhsMax =  -9.26604357687211E-08  9.35495205473915E+00
 cg2d: Sum(rhs),rhsMax =  -9.26899872411013E-08  9.35202472862356E+00
 cg2d: Sum(rhs),rhsMax =  -9.27198087197212E-08  9.34905386050751E+00
 cg2d: Sum(rhs),rhsMax =  -9.27502270542391E-08  9.34603912446753E+00
 cg2d: Sum(rhs),rhsMax =  -9.27809580275607E-08  9.34298052032945E+00
 cg2d: Sum(rhs),rhsMax =  -9.28122148025068E-08  9.33987837125357E+00
 cg2d: Sum(rhs),rhsMax =  -9.28438836922396E-08  9.33673332003228E+00
 cg2d: Sum(rhs),rhsMax =  -9.28756591633828E-08  9.33354631509102E+00
 cg2d: Sum(rhs),rhsMax =  -9.29085999246126E-08  9.33031856217985E+00
 cg2d: Sum(rhs),rhsMax =  -9.29414056827227E-08  9.32705144157814E+00
 cg2d: Sum(rhs),rhsMax =  -9.29742824951063E-08  9.32374640924821E+00
 cg2d: Sum(rhs),rhsMax =  -9.30079835370634E-08  9.32040491207867E+00
 cg2d: Sum(rhs),rhsMax =  -9.30417982658582E-08  9.31702830536998E+00
 cg2d: Sum(rhs),rhsMax =  -9.30764798567907E-08  9.31361778906816E+00
 cg2d: Sum(rhs),rhsMax =  -9.31104011669959E-08  9.31017435680010E+00
 cg2d: Sum(rhs),rhsMax =  -9.31454593455783E-08  9.30669874783390E+00
 cg2d: Sum(rhs),rhsMax =  -9.31809367443748E-08  9.30319140183628E+00
 cg2d: Sum(rhs),rhsMax =  -9.32159238686836E-08  9.29965242032067E+00
 cg2d: Sum(rhs),rhsMax =  -9.32518702256857E-08  9.29608155387300E+00
 cg2d: Sum(rhs),rhsMax =  -9.32883352788849E-08  9.29247816276956E+00
 cg2d: Sum(rhs),rhsMax =  -9.33245232204172E-08  9.28884120452690E+00
 cg2d: Sum(rhs),rhsMax =  -9.33613577558390E-08  9.28516924951164E+00
 cg2d: Sum(rhs),rhsMax =  -9.33982562401070E-08  9.28146051649491E+00
 cg2d: Sum(rhs),rhsMax =  -9.34364479121541E-08  9.27771291851975E+00
 cg2d: Sum(rhs),rhsMax =  -9.34740143065937E-08  9.27392411497484E+00
 cg2d: Sum(rhs),rhsMax =  -9.35126251988549E-08  9.27009157616147E+00
 cg2d: Sum(rhs),rhsMax =  -9.35518329470142E-08  9.26621266064052E+00
 cg2d: Sum(rhs),rhsMax =  -9.35912964905583E-08  9.26228469753356E+00
 cg2d: Sum(rhs),rhsMax =  -9.36311082000429E-08  9.25830502540661E+00
 cg2d: Sum(rhs),rhsMax =  -9.36718080879473E-08  9.25427104022615E+00
 cg2d: Sum(rhs),rhsMax =  -9.37130835154676E-08  9.25018025806528E+00
 cg2d: Sum(rhs),rhsMax =  -9.37547639523473E-08  9.24603037476154E+00
 cg2d: Sum(rhs),rhsMax =  -9.37974888870485E-08  9.24181932462259E+00
 cg2d: Sum(rhs),rhsMax =  -9.38402919814507E-08  9.23754533703139E+00
 cg2d: Sum(rhs),rhsMax =  -9.38843172093584E-08  9.23320698439808E+00
 cg2d: Sum(rhs),rhsMax =  -9.39290814017113E-08  9.22880321317793E+00
 cg2d: Sum(rhs),rhsMax =  -9.39739734917566E-08  9.22433335164241E+00
 cg2d: Sum(rhs),rhsMax =  -9.40200521881707E-08  9.21979710173837E+00
 cg2d: Sum(rhs),rhsMax =  -9.40667135296280E-08  9.21519452384442E+00
 cg2d: Sum(rhs),rhsMax =  -9.41140712029664E-08  9.21052602027441E+00
 cg2d: Sum(rhs),rhsMax =  -9.41621181027585E-08  9.20579231856880E+00
 cg2d: Sum(rhs),rhsMax =  -9.42108115964402E-08  9.20099445172383E+00
 cg2d: Sum(rhs),rhsMax =  -9.42603506359774E-08  9.19613373409314E+00
 cg2d: Sum(rhs),rhsMax =  -9.43106570616692E-08  9.19121172891709E+00
 cg2d: Sum(rhs),rhsMax =  -9.43619582471911E-08  9.18623021276131E+00
 cg2d: Sum(rhs),rhsMax =  -9.44129254776271E-08  9.18119115032627E+00
 cg2d: Sum(rhs),rhsMax =  -9.44648874678933E-08  9.17609666859133E+00
 EXTERNAL_FIELDS_LOAD, it=   3600450 : Reading new data, i0,i1=    8    9 (prev=    7    8 )
 DIC_FIELDS_LOAD, it=   3600450 : Reading new data, i0,i1=    8    9 (prev=    7    8 )
 cg2d: Sum(rhs),rhsMax =  -9.45180929079470E-08  9.17094900539886E+00
 cg2d: Sum(rhs),rhsMax =  -9.45713196642828E-08  9.16576037761048E+00
 cg2d: Sum(rhs),rhsMax =  -9.46249869571147E-08  9.16053907873528E+00
 cg2d: Sum(rhs),rhsMax =  -9.46787679367844E-08  9.15529303788953E+00
 cg2d: Sum(rhs),rhsMax =  -9.47327123412833E-08  9.15002961005962E+00
 cg2d: Sum(rhs),rhsMax =  -9.47873814993727E-08  9.14475542293395E+00
 cg2d: Sum(rhs),rhsMax =  -9.48415888046839E-08  9.13947626776025E+00
 cg2d: Sum(rhs),rhsMax =  -9.48963148061921E-08  9.13419703804716E+00
 cg2d: Sum(rhs),rhsMax =  -9.49505718494947E-08  9.12892171232682E+00
 cg2d: Sum(rhs),rhsMax =  -9.50055820680973E-08  9.12365335338700E+00
 cg2d: Sum(rhs),rhsMax =  -9.50602441207593E-08  9.11839411243203E+00
 cg2d: Sum(rhs),rhsMax =  -9.51149274897034E-08  9.11314523538299E+00
 cg2d: Sum(rhs),rhsMax =  -9.51689713701853E-08  9.10790707134369E+00
 cg2d: Sum(rhs),rhsMax =  -9.52241663298992E-08  9.10267908920085E+00
 cg2d: Sum(rhs),rhsMax =  -9.52785583763216E-08  9.09745990818067E+00
 cg2d: Sum(rhs),rhsMax =  -9.53332346398383E-08  9.09224734512777E+00
 cg2d: Sum(rhs),rhsMax =  -9.53879322196372E-08  9.08703847736888E+00
 cg2d: Sum(rhs),rhsMax =  -9.54423811094784E-08  9.08182972075513E+00
 cg2d: Sum(rhs),rhsMax =  -9.54974623823546E-08  9.07661692347198E+00
 cg2d: Sum(rhs),rhsMax =  -9.55527141854873E-08  9.07139547821490E+00
 cg2d: Sum(rhs),rhsMax =  -9.56078878289190E-08  9.06616045270155E+00
 cg2d: Sum(rhs),rhsMax =  -9.56632462134621E-08  9.06090673305150E+00
 cg2d: Sum(rhs),rhsMax =  -9.57190593453561E-08  9.05562917574046E+00
 cg2d: Sum(rhs),rhsMax =  -9.57753982788745E-08  9.05032276301453E+00
 cg2d: Sum(rhs),rhsMax =  -9.58323127520089E-08  9.04498274779792E+00
 cg2d: Sum(rhs),rhsMax =  -9.58890566948867E-08  9.03960479010611E+00
 cg2d: Sum(rhs),rhsMax =  -9.59469090844323E-08  9.03418508103277E+00
 cg2d: Sum(rhs),rhsMax =  -9.60046975251316E-08  9.02872044807494E+00
 cg2d: Sum(rhs),rhsMax =  -9.60634949365158E-08  9.02320843719522E+00
 cg2d: Sum(rhs),rhsMax =  -9.61234505325592E-08  9.01764736350553E+00
 cg2d: Sum(rhs),rhsMax =  -9.61829158541150E-08  9.01203632711249E+00
 cg2d: Sum(rhs),rhsMax =  -9.62436175200310E-08  9.00637519234014E+00
 cg2d: Sum(rhs),rhsMax =  -9.63047241953063E-08  9.00066454100738E+00
 cg2d: Sum(rhs),rhsMax =  -9.63663566722062E-08  8.99490560644289E+00
 cg2d: Sum(rhs),rhsMax =  -9.64286215321408E-08  8.98910019830229E+00
 cg2d: Sum(rhs),rhsMax =  -9.64914832479735E-08  8.98325060608421E+00
 cg2d: Sum(rhs),rhsMax =  -9.65549631359863E-08  8.97735949860674E+00
 cg2d: Sum(rhs),rhsMax =  -9.66191180395981E-08  8.97142982445055E+00
 cg2d: Sum(rhs),rhsMax =  -9.66832942594920E-08  8.96546471599943E+00
 cg2d: Sum(rhs),rhsMax =  -9.67482520763951E-08  8.95946740124540E+00
 cg2d: Sum(rhs),rhsMax =  -9.68132098932983E-08  8.95344112713886E+00
 cg2d: Sum(rhs),rhsMax =  -9.68790274669118E-08  8.94738909112794E+00
 cg2d: Sum(rhs),rhsMax =  -9.69447810916790E-08  8.94131438207753E+00
 cg2d: Sum(rhs),rhsMax =  -9.70111884157632E-08  8.93521991327319E+00
 cg2d: Sum(rhs),rhsMax =  -9.70773115227530E-08  8.92910833888471E+00
 cg2d: Sum(rhs),rhsMax =  -9.71445075492738E-08  8.92298199747039E+00
 cg2d: Sum(rhs),rhsMax =  -9.72113554098541E-08  8.91684290726808E+00
 cg2d: Sum(rhs),rhsMax =  -9.72787574937684E-08  8.91069264633776E+00
 cg2d: Sum(rhs),rhsMax =  -9.73459535202892E-08  8.90453228797114E+00
 cg2d: Sum(rhs),rhsMax =  -9.74135971887335E-08  8.89836249714105E+00
 cg2d: Sum(rhs),rhsMax =  -9.74817027099562E-08  8.89218368115518E+00
 cg2d: Sum(rhs),rhsMax =  -9.75496519117769E-08  8.88599608996445E+00
 cg2d: Sum(rhs),rhsMax =  -9.76179350686834E-08  8.87979980032782E+00
 cg2d: Sum(rhs),rhsMax =  -9.76860476953334E-08  8.87359466021019E+00
 cg2d: Sum(rhs),rhsMax =  -9.77549490244201E-08  8.86737992136571E+00
 cg2d: Sum(rhs),rhsMax =  -9.78237792992331E-08  8.86115449881272E+00
 cg2d: Sum(rhs),rhsMax =  -9.78925882577641E-08  8.85491714939279E+00
 cg2d: Sum(rhs),rhsMax =  -9.79620651264668E-08  8.84866650814923E+00
 cg2d: Sum(rhs),rhsMax =  -9.80318830556826E-08  8.84239908862083E+00
 cg2d: Sum(rhs),rhsMax =  -9.81016583523342E-08  8.83611205511795E+00
 EXTERNAL_FIELDS_LOAD, it=   3600510 : Reading new data, i0,i1=    9   10 (prev=    8    9 )
 DIC_FIELDS_LOAD, it=   3600510 : Reading new data, i0,i1=    9   10 (prev=    8    9 )
 cg2d: Sum(rhs),rhsMax =  -9.81721868242857E-08  8.82980306034887E+00
 cg2d: Sum(rhs),rhsMax =  -9.82427721396562E-08  8.82347164349139E+00
 cg2d: Sum(rhs),rhsMax =  -9.83135990395567E-08  8.81711735596894E+00
 cg2d: Sum(rhs),rhsMax =  -9.83851720093298E-08  8.81074020360017E+00
 cg2d: Sum(rhs),rhsMax =  -9.84564962891454E-08  8.80434063629974E+00
 cg2d: Sum(rhs),rhsMax =  -9.85286376931072E-08  8.79791959804717E+00
 cg2d: Sum(rhs),rhsMax =  -9.86011414738641E-08  8.79147850051498E+00
 cg2d: Sum(rhs),rhsMax =  -9.86734960406466E-08  8.78501923806664E+00
 cg2d: Sum(rhs),rhsMax =  -9.87464900958912E-08  8.77854412431977E+00
 cg2d: Sum(rhs),rhsMax =  -9.88197470519481E-08  8.77205585109022E+00
 cg2d: Sum(rhs),rhsMax =  -9.88934729662105E-08  8.76555740298602E+00
 cg2d: Sum(rhs),rhsMax =  -9.89669146633787E-08  8.75905198910442E+00
 cg2d: Sum(rhs),rhsMax =  -9.90407258427695E-08  8.75254295465281E+00
 cg2d: Sum(rhs),rhsMax =  -9.91145014950234E-08  8.74603368964057E+00
 cg2d: Sum(rhs),rhsMax =  -9.91886466295000E-08  8.73952755244439E+00
 cg2d: Sum(rhs),rhsMax =  -9.92623157003436E-08  8.73302782624689E+00
 cg2d: Sum(rhs),rhsMax =  -9.93363400425551E-08  8.72653766294564E+00
 cg2d: Sum(rhs),rhsMax =  -9.94104141227581E-08  8.72006002219781E+00
 cg2d: Sum(rhs),rhsMax =  -9.94844668866790E-08  8.71359759621992E+00
 cg2d: Sum(rhs),rhsMax =  -9.95583775420528E-08  8.70715278372291E+00
 cg2d: Sum(rhs),rhsMax =  -9.96322597757171E-08  8.70072771032166E+00
 cg2d: Sum(rhs),rhsMax =  -9.97059714791249E-08  8.69432422374462E+00
 cg2d: Sum(rhs),rhsMax =  -9.97792923840279E-08  8.68794392220557E+00
 cg2d: Sum(rhs),rhsMax =  -9.98527127649140E-08  8.68159287495532E+00
 cg2d: Sum(rhs),rhsMax =  -9.99256144496030E-08  8.67527594836007E+00
 cg2d: Sum(rhs),rhsMax =  -9.99983740257449E-08  8.66899648662334E+00
 cg2d: Sum(rhs),rhsMax =  -1.00070764119664E-07  8.66275674813775E+00
 cg2d: Sum(rhs),rhsMax =  -1.00142791836788E-07  8.65655808426570E+00
 cg2d: Sum(rhs),rhsMax =  -1.00214123222031E-07  8.65040095427649E+00
 cg2d: Sum(rhs),rhsMax =  -1.00285419080137E-07  8.64428511771589E+00
 cg2d: Sum(rhs),rhsMax =  -1.00356203347474E-07  8.63820779072895E+00
 cg2d: Sum(rhs),rhsMax =  -1.00426881033400E-07  8.63216610266613E+00
 cg2d: Sum(rhs),rhsMax =  -1.00497182131676E-07  8.62615664857018E+00
 cg2d: Sum(rhs),rhsMax =  -1.00566929006618E-07  8.62017549344574E+00
 cg2d: Sum(rhs),rhsMax =  -1.00636839306389E-07  8.61421824973427E+00
 cg2d: Sum(rhs),rhsMax =  -1.00706515127058E-07  8.60828014305759E+00
 cg2d: Sum(rhs),rhsMax =  -1.00776318845419E-07  8.60235619466164E+00
 cg2d: Sum(rhs),rhsMax =  -1.00845916506387E-07  8.59644141396147E+00
 cg2d: Sum(rhs),rhsMax =  -1.00915485745645E-07  8.59053104903554E+00
 cg2d: Sum(rhs),rhsMax =  -1.00985261042297E-07  8.58462072248315E+00
 cg2d: Sum(rhs),rhsMax =  -1.01055491086299E-07  8.57870663714626E+00
 cg2d: Sum(rhs),rhsMax =  -1.01125422702353E-07  8.57278566865890E+00
 cg2d: Sum(rhs),rhsMax =  -1.01195716695202E-07  8.56685532083521E+00
 cg2d: Sum(rhs),rhsMax =  -1.01266216745444E-07  8.56091374139585E+00
 cg2d: Sum(rhs),rhsMax =  -1.01337192859319E-07  8.55495975914983E+00
 cg2d: Sum(rhs),rhsMax =  -1.01408346608878E-07  8.54899275863313E+00
 cg2d: Sum(rhs),rhsMax =  -1.01479535885574E-07  8.54301265247851E+00
 cg2d: Sum(rhs),rhsMax =  -1.01551435705005E-07  8.53701978569626E+00
 cg2d: Sum(rhs),rhsMax =  -1.01622724457684E-07  8.53101490472480E+00
 cg2d: Sum(rhs),rhsMax =  -1.01695292187287E-07  8.52499919193590E+00
 cg2d: Sum(rhs),rhsMax =  -1.01767554383514E-07  8.51897431341724E+00
 cg2d: Sum(rhs),rhsMax =  -1.01840242905382E-07  8.51294235247767E+00
 cg2d: Sum(rhs),rhsMax =  -1.01912846162122E-07  8.50690569200869E+00
 cg2d: Sum(rhs),rhsMax =  -1.01985413891725E-07  8.50087005576702E+00
 cg2d: Sum(rhs),rhsMax =  -1.02058450579534E-07  8.49484015017416E+00
 cg2d: Sum(rhs),rhsMax =  -1.02131188839394E-07  8.48882063673028E+00
 cg2d: Sum(rhs),rhsMax =  -1.02203856044980E-07  8.48281607441673E+00
 cg2d: Sum(rhs),rhsMax =  -1.02276672464541E-07  8.47683086082370E+00
 cg2d: Sum(rhs),rhsMax =  -1.02349595465512E-07  8.47086915096995E+00
 cg2d: Sum(rhs),rhsMax =  -1.02421360281824E-07  8.46493476809303E+00
 EXTERNAL_FIELDS_LOAD, it=   3600570 : Reading new data, i0,i1=   10   11 (prev=    9   10 )
 DIC_FIELDS_LOAD, it=   3600570 : Reading new data, i0,i1=   10   11 (prev=    9   10 )
 cg2d: Sum(rhs),rhsMax =  -1.02493515896640E-07  8.45903109783263E+00
 cg2d: Sum(rhs),rhsMax =  -1.02564975179575E-07  8.45319648993583E+00
 cg2d: Sum(rhs),rhsMax =  -1.02634501786270E-07  8.44745634270964E+00
 cg2d: Sum(rhs),rhsMax =  -1.02703893389844E-07  8.44183524325516E+00
 cg2d: Sum(rhs),rhsMax =  -1.02770819410125E-07  8.43635626330932E+00
 cg2d: Sum(rhs),rhsMax =  -1.02836231974379E-07  8.43104036727980E+00
 cg2d: Sum(rhs),rhsMax =  -1.02899214482477E-07  8.42590597581903E+00
 cg2d: Sum(rhs),rhsMax =  -1.02960150627496E-07  8.42096861540595E+00
 cg2d: Sum(rhs),rhsMax =  -1.03018727770632E-07  8.41624063283881E+00
 cg2d: Sum(rhs),rhsMax =  -1.03074462742825E-07  8.41173099284368E+00
 cg2d: Sum(rhs),rhsMax =  -1.03127582917750E-07  8.40744522364360E+00
 cg2d: Sum(rhs),rhsMax =  -1.03177704602331E-07  8.40338548638234E+00
 cg2d: Sum(rhs),rhsMax =  -1.03225289649345E-07  8.39955071057647E+00
 cg2d: Sum(rhs),rhsMax =  -1.03270444640202E-07  8.39593686353065E+00
 cg2d: Sum(rhs),rhsMax =  -1.03312800092681E-07  8.39253726007720E+00
 cg2d: Sum(rhs),rhsMax =  -1.03352554958747E-07  8.38934286490718E+00
 cg2d: Sum(rhs),rhsMax =  -1.03389886874083E-07  8.38634267692018E+00
 cg2d: Sum(rhs),rhsMax =  -1.03425186637196E-07  8.38352418466840E+00
 cg2d: Sum(rhs),rhsMax =  -1.03458575040349E-07  8.38087384792736E+00
 cg2d: Sum(rhs),rhsMax =  -1.03489654179612E-07  8.37837764295235E+00
 cg2d: Sum(rhs),rhsMax =  -1.03519347760539E-07  8.37602165023152E+00
 cg2d: Sum(rhs),rhsMax =  -1.03547364460610E-07  8.37379265495454E+00
 cg2d: Sum(rhs),rhsMax =  -1.03573896126363E-07  8.37167859305842E+00
 cg2d: Sum(rhs),rhsMax =  -1.03599155920620E-07  8.36966841617237E+00
 cg2d: Sum(rhs),rhsMax =  -1.03623357006200E-07  8.36775262363169E+00
 cg2d: Sum(rhs),rhsMax =  -1.03646584648232E-07  8.36592322530019E+00
 cg2d: Sum(rhs),rhsMax =  -1.03668426731929E-07  8.36417370361670E+00
 cg2d: Sum(rhs),rhsMax =  -1.03689806962848E-07  8.36249893566327E+00
 cg2d: Sum(rhs),rhsMax =  -1.03710164012227E-07  8.36089512198643E+00
 cg2d: Sum(rhs),rhsMax =  -1.03729064448999E-07  8.35935972193128E+00
 cg2d: Sum(rhs),rhsMax =  -1.03747986202052E-07  8.35789132052859E+00
 cg2d: Sum(rhs),rhsMax =  -1.03765373182796E-07  8.35648953984663E+00
 cg2d: Sum(rhs),rhsMax =  -1.03782369365035E-07  8.35515503666620E+00
 cg2d: Sum(rhs),rhsMax =  -1.03798733164240E-07  8.35388959337713E+00
 cg2d: Sum(rhs),rhsMax =  -1.03813491136862E-07  8.35269612989214E+00
 cg2d: Sum(rhs),rhsMax =  -1.03827638042731E-07  8.35157865319166E+00
 cg2d: Sum(rhs),rhsMax =  -1.03841280463257E-07  8.35054220321588E+00
 cg2d: Sum(rhs),rhsMax =  -1.03853331268056E-07  8.34959282244478E+00
 cg2d: Sum(rhs),rhsMax =  -1.03864024936229E-07  8.34873757212784E+00
 cg2d: Sum(rhs),rhsMax =  -1.03873794898846E-07  8.34798443944571E+00
 cg2d: Sum(rhs),rhsMax =  -1.03881951929452E-07  8.34734205444848E+00
 cg2d: Sum(rhs),rhsMax =  -1.03888730507151E-07  8.34681927427749E+00
 cg2d: Sum(rhs),rhsMax =  -1.03893782466002E-07  8.34642479662444E+00
 cg2d: Sum(rhs),rhsMax =  -1.03896695691219E-07  8.34616690162161E+00
 cg2d: Sum(rhs),rhsMax =  -1.03898251779810E-07  8.34605328416144E+00
 cg2d: Sum(rhs),rhsMax =  -1.03897747294468E-07  8.34609086201575E+00
 cg2d: Sum(rhs),rhsMax =  -1.03895416714295E-07  8.34628560159372E+00
 cg2d: Sum(rhs),rhsMax =  -1.03891132141598E-07  8.34664238294981E+00
 cg2d: Sum(rhs),rhsMax =  -1.03884730151549E-07  8.34716488141953E+00
 cg2d: Sum(rhs),rhsMax =  -1.03876232060429E-07  8.34785544920597E+00
 cg2d: Sum(rhs),rhsMax =  -1.03865339440290E-07  8.34871504733891E+00
 cg2d: Sum(rhs),rhsMax =  -1.03852393351644E-07  8.34974320296400E+00
 cg2d: Sum(rhs),rhsMax =  -1.03837578535604E-07  8.35093803633076E+00
 cg2d: Sum(rhs),rhsMax =  -1.03820866570459E-07  8.35229628921908E+00
 cg2d: Sum(rhs),rhsMax =  -1.03801575335183E-07  8.35381348895399E+00
 cg2d: Sum(rhs),rhsMax =  -1.03780770643880E-07  8.35548405560547E+00
 cg2d: Sum(rhs),rhsMax =  -1.03758168279455E-07  8.35730145035772E+00
 cg2d: Sum(rhs),rhsMax =  -1.03734052459004E-07  8.35925834161856E+00
 cg2d: Sum(rhs),rhsMax =  -1.03707641585515E-07  8.36134677020027E+00
 cg2d: Sum(rhs),rhsMax =  -1.03680264373907E-07  8.36355833544679E+00
 EXTERNAL_FIELDS_LOAD, it=   3600630 : Reading new data, i0,i1=   11   12 (prev=   10   11 )
 DIC_FIELDS_LOAD, it=   3600630 : Reading new data, i0,i1=   11   12 (prev=   10   11 )
 cg2d: Sum(rhs),rhsMax =  -1.03651167648877E-07  8.36588437297216E+00
 cg2d: Sum(rhs),rhsMax =  -1.03620983793462E-07  8.36829873825493E+00
 cg2d: Sum(rhs),rhsMax =  -1.03590167555012E-07  8.37078098256463E+00
 cg2d: Sum(rhs),rhsMax =  -1.03558832620365E-07  8.37331076990736E+00
 cg2d: Sum(rhs),rhsMax =  -1.03526986094948E-07  8.37586828475342E+00
 cg2d: Sum(rhs),rhsMax =  -1.03494969039275E-07  8.37843651347270E+00
 cg2d: Sum(rhs),rhsMax =  -1.03462959089029E-07  8.38100058596186E+00
 cg2d: Sum(rhs),rhsMax =  -1.03431759157502E-07  8.38354800119352E+00
 cg2d: Sum(rhs),rhsMax =  -1.03400431328282E-07  8.38606907281455E+00
 cg2d: Sum(rhs),rhsMax =  -1.03369536930131E-07  8.38855705740912E+00
 cg2d: Sum(rhs),rhsMax =  -1.03339182544460E-07  8.39100818777902E+00
 cg2d: Sum(rhs),rhsMax =  -1.03309091059600E-07  8.39342162927294E+00
 cg2d: Sum(rhs),rhsMax =  -1.03279326424399E-07  8.39579937673915E+00
 cg2d: Sum(rhs),rhsMax =  -1.03250158645096E-07  8.39814606298476E+00
 cg2d: Sum(rhs),rhsMax =  -1.03221587721691E-07  8.40046867037939E+00
 cg2d: Sum(rhs),rhsMax =  -1.03192640210636E-07  8.40277617859981E+00
 cg2d: Sum(rhs),rhsMax =  -1.03164317977189E-07  8.40507915533000E+00
 cg2d: Sum(rhs),rhsMax =  -1.03135583628955E-07  8.40738929078001E+00
 cg2d: Sum(rhs),rhsMax =  -1.03106465587643E-07  8.40971893982490E+00
 cg2d: Sum(rhs),rhsMax =  -1.03077603341717E-07  8.41208069021930E+00
 cg2d: Sum(rhs),rhsMax =  -1.03047760546815E-07  8.41448664736628E+00
 cg2d: Sum(rhs),rhsMax =  -1.03017328001442E-07  8.41694808963461E+00
 cg2d: Sum(rhs),rhsMax =  -1.02985850958248E-07  8.41947641344255E+00
 cg2d: Sum(rhs),rhsMax =  -1.02953762848301E-07  8.42209465677943E+00
 cg2d: Sum(rhs),rhsMax =  -1.02920779454507E-07  8.42481840011152E+00
 cg2d: Sum(rhs),rhsMax =  -1.02885756803062E-07  8.42766143831664E+00
 cg2d: Sum(rhs),rhsMax =  -1.02849760708068E-07  8.43063562227923E+00
 cg2d: Sum(rhs),rhsMax =  -1.02811505087175E-07  8.43375048923612E+00
 cg2d: Sum(rhs),rhsMax =  -1.02771743115682E-07  8.43701312183894E+00
 cg2d: Sum(rhs),rhsMax =  -1.02730268736195E-07  8.44042805498092E+00
 cg2d: Sum(rhs),rhsMax =  -1.02686364300553E-07  8.44399728026233E+00
 cg2d: Sum(rhs),rhsMax =  -1.02641237731405E-07  8.44772028674299E+00
 cg2d: Sum(rhs),rhsMax =  -1.02594057693750E-07  8.45159419183708E+00
 cg2d: Sum(rhs),rhsMax =  -1.02545079982974E-07  8.45561389463918E+00
 cg2d: Sum(rhs),rhsMax =  -1.02494418285914E-07  8.45977229544668E+00
 cg2d: Sum(rhs),rhsMax =  -1.02442626825905E-07  8.46406043486096E+00
 cg2d: Sum(rhs),rhsMax =  -1.02389186906748E-07  8.46846786249842E+00
 cg2d: Sum(rhs),rhsMax =  -1.02334411167249E-07  8.47298294092153E+00
 cg2d: Sum(rhs),rhsMax =  -1.02278569613645E-07  8.47759310010859E+00
 cg2d: Sum(rhs),rhsMax =  -1.02221783038203E-07  8.48228511495217E+00
 cg2d: Sum(rhs),rhsMax =  -1.02164435134000E-07  8.48704540520819E+00
 cg2d: Sum(rhs),rhsMax =  -1.02106639587873E-07  8.49186038102640E+00
 cg2d: Sum(rhs),rhsMax =  -1.02048161920720E-07  8.49671683330553E+00
 cg2d: Sum(rhs),rhsMax =  -1.01989222400789E-07  8.50160229731839E+00
 cg2d: Sum(rhs),rhsMax =  -1.01930119456028E-07  8.50650541756349E+00
 cg2d: Sum(rhs),rhsMax =  -1.01871734159431E-07  8.51141606286167E+00
 cg2d: Sum(rhs),rhsMax =  -1.01813114383731E-07  8.51632550458549E+00
 cg2d: Sum(rhs),rhsMax =  -1.01754352499484E-07  8.52122658728227E+00
 cg2d: Sum(rhs),rhsMax =  -1.01695938781177E-07  8.52611387363114E+00
 cg2d: Sum(rhs),rhsMax =  -1.01637908755947E-07  8.53098375482528E+00
 cg2d: Sum(rhs),rhsMax =  -1.01580091893538E-07  8.53583450654913E+00
 cg2d: Sum(rhs),rhsMax =  -1.01522516615660E-07  8.54066629803099E+00
 cg2d: Sum(rhs),rhsMax =  -1.01465325030858E-07  8.54548114840508E+00
 cg2d: Sum(rhs),rhsMax =  -1.01408510033707E-07  8.55028281355603E+00
 cg2d: Sum(rhs),rhsMax =  -1.01351844250530E-07  8.55507663782142E+00
 cg2d: Sum(rhs),rhsMax =  -1.01294901355686E-07  8.55986938569464E+00
 cg2d: Sum(rhs),rhsMax =  -1.01238242677937E-07  8.56466907941720E+00
 cg2d: Sum(rhs),rhsMax =  -1.01181711897880E-07  8.56948481849350E+00
 cg2d: Sum(rhs),rhsMax =  -1.01124427942523E-07  8.57432655386490E+00
 cg2d: Sum(rhs),rhsMax =  -1.01066994773191E-07  8.57920482306538E+00
 EXTERNAL_FIELDS_LOAD, it=   3600690 : Reading new data, i0,i1=   12    1 (prev=   11   12 )
 DIC_FIELDS_LOAD, it=   3600690 : Reading new data, i0,i1=   12    1 (prev=   11   12 )
 cg2d: Sum(rhs),rhsMax =  -1.01009099751082E-07  8.58413045456863E+00
 cg2d: Sum(rhs),rhsMax =  -1.00950970249869E-07  8.58908772075261E+00
 cg2d: Sum(rhs),rhsMax =  -1.00892201260194E-07  8.59407113784658E+00
 cg2d: Sum(rhs),rhsMax =  -1.00833979388426E-07  8.59907533504329E+00
 cg2d: Sum(rhs),rhsMax =  -1.00775366718153E-07  8.60409527812640E+00
 cg2d: Sum(rhs),rhsMax =  -1.00716533779632E-07  8.60912639608676E+00
 cg2d: Sum(rhs),rhsMax =  -1.00657807422522E-07  8.61416467727663E+00
 cg2d: Sum(rhs),rhsMax =  -1.00599194752249E-07  8.61920670304104E+00
 cg2d: Sum(rhs),rhsMax =  -1.00540219705181E-07  8.62424959025954E+00
 cg2d: Sum(rhs),rhsMax =  -1.00481713616318E-07  8.62929084710763E+00
 cg2d: Sum(rhs),rhsMax =  -1.00423278581729E-07  8.63432823431656E+00
 cg2d: Sum(rhs),rhsMax =  -1.00365085131671E-07  8.63935967110789E+00
 cg2d: Sum(rhs),rhsMax =  -1.00306984052168E-07  8.64438326330631E+00
 cg2d: Sum(rhs),rhsMax =  -1.00248698231553E-07  8.64939736363611E+00
 cg2d: Sum(rhs),rhsMax =  -1.00191144269957E-07  8.65440069908248E+00
 cg2d: Sum(rhs),rhsMax =  -1.00133568992078E-07  8.65939260929048E+00
 cg2d: Sum(rhs),rhsMax =  -1.00076100295610E-07  8.66437312037654E+00
 cg2d: Sum(rhs),rhsMax =  -1.00019036608501E-07  8.66934290835576E+00
 cg2d: Sum(rhs),rhsMax =  -9.99617597585711E-08  8.67430225124478E+00
 cg2d: Sum(rhs),rhsMax =  -9.99047102823170E-08  8.67925494682890E+00
 cg2d: Sum(rhs),rhsMax =  -9.98482363456787E-08  8.68420608713978E+00
 cg2d: Sum(rhs),rhsMax =  -9.97913716105359E-08  8.68916081980566E+00
 cg2d: Sum(rhs),rhsMax =  -9.97343434505638E-08  8.69412416784580E+00
 cg2d: Sum(rhs),rhsMax =  -9.96773295014464E-08  8.69910085245627E+00
 cg2d: Sum(rhs),rhsMax =  -9.96202871306195E-08  8.70409517445086E+00
 cg2d: Sum(rhs),rhsMax =  -9.95629250155616E-08  8.70911095741398E+00
 cg2d: Sum(rhs),rhsMax =  -9.95059110664442E-08  8.71415148969223E+00
 cg2d: Sum(rhs),rhsMax =  -9.94480160443345E-08  8.71921930590513E+00
 cg2d: Sum(rhs),rhsMax =  -9.93902702361993E-08  8.72431607432102E+00
 cg2d: Sum(rhs),rhsMax =  -9.93317215147727E-08  8.72944261226047E+00
 cg2d: Sum(rhs),rhsMax =  -9.92735280647139E-08  8.73459893266904E+00
 cg2d: Sum(rhs),rhsMax =  -9.92147448641845E-08  8.73978430818157E+00
 cg2d: Sum(rhs),rhsMax =  -9.91560966667748E-08  8.74499735837366E+00
 cg2d: Sum(rhs),rhsMax =  -9.90966526615011E-08  8.75023614706347E+00
 cg2d: Sum(rhs),rhsMax =  -9.90366970654577E-08  8.75549829188909E+00
 cg2d: Sum(rhs),rhsMax =  -9.89772743764661E-08  8.76078107848702E+00
 cg2d: Sum(rhs),rhsMax =  -9.89177024735000E-08  8.76608155580086E+00
 cg2d: Sum(rhs),rhsMax =  -9.88579742511320E-08  8.77139664107964E+00
 cg2d: Sum(rhs),rhsMax =  -9.87977060162848E-08  8.77672320795606E+00
 cg2d: Sum(rhs),rhsMax =  -9.87382264838743E-08  8.78205816635757E+00
(PID.TID 0000.0001) Did not write pickup because writePickupAtEnd = FALSE
 DIC_SURFFORCING_INIT, it=   3600000 : Reading new data, i0,i1=   12    1
 QQ: pCO2 approximation method
 QQ first guess pH 8.2869849781645275,  7.129213793781922,  34.1535348423009,  2.0282,  5.43799999999999991E-4,  8.08490416966378689E-3,  2.3086000000000002
(PID.TID 0000.0001) // =======================================================
(PID.TID 0000.0001) // Model current state
(PID.TID 0000.0001) // =======================================================
(PID.TID 0000.0001) 
 EXTERNAL_FIELDS_LOAD, it=   3600000 : Reading new data, i0,i1=   12    1 (prev=   12    0 )
 DIC_FIELDS_LOAD, it=   3600000 : Reading new data, i0,i1=   12    1 (prev=   12    0 )
 cg2d: Sum(rhs),rhsMax =  -9.92433868418630E-08  8.73439671821315E+00
 cg2d: Sum(rhs),rhsMax =  -9.91844260056496E-08  8.73957958587058E+00
 cg2d: Sum(rhs),rhsMax =  -9.91252449011881E-08  8.74478969091806E+00
 cg2d: Sum(rhs),rhsMax =  -9.90665185440776E-08  8.75002495477880E+00
 cg2d: Sum(rhs),rhsMax =  -9.90068542705558E-08  8.75528284057604E+00
 cg2d: Sum(rhs),rhsMax =  -9.89473534218632E-08  8.76056047500076E+00
 cg2d: Sum(rhs),rhsMax =  -9.88878241514612E-08  8.76585475900637E+00
 cg2d: Sum(rhs),rhsMax =  -9.88279893476829E-08  8.77116249138180E+00
 cg2d: Sum(rhs),rhsMax =  -9.87682469144602E-08  8.77648047471154E+00
 cg2d: Sum(rhs),rhsMax =  -9.87087602766223E-08  8.78180560756084E+00
 cg2d: Sum(rhs),rhsMax =  -9.86489112619893E-08  8.78713494778165E+00
 cg2d: Sum(rhs),rhsMax =  -9.85891404070571E-08  8.79246575399440E+00
 cg2d: Sum(rhs),rhsMax =  -9.85293340249882E-08  8.79779549299699E+00
 cg2d: Sum(rhs),rhsMax =  -9.84700747608258E-08  8.80312181092759E+00
 cg2d: Sum(rhs),rhsMax =  -9.84108581292276E-08  8.80844249631459E+00
 cg2d: Sum(rhs),rhsMax =  -9.83516486030567E-08  8.81375547068360E+00
 cg2d: Sum(rhs),rhsMax =  -9.82926522397065E-08  8.81905885446822E+00
 cg2d: Sum(rhs),rhsMax =  -9.82337553523394E-08  8.82435106608147E+00
 cg2d: Sum(rhs),rhsMax =  -9.81751568929212E-08  8.82963093738125E+00
 cg2d: Sum(rhs),rhsMax =  -9.81166650149135E-08  8.83489782452132E+00
 cg2d: Sum(rhs),rhsMax =  -9.80585213028462E-08  8.84015168145881E+00
 cg2d: Sum(rhs),rhsMax =  -9.80007470730015E-08  8.84539306572338E+00
 cg2d: Sum(rhs),rhsMax =  -9.79429586323022E-08  8.85062306296846E+00
 cg2d: Sum(rhs),rhsMax =  -9.78853904598509E-08  8.85584316140559E+00
 cg2d: Sum(rhs),rhsMax =  -9.78280425556477E-08  8.86105508303604E+00
 cg2d: Sum(rhs),rhsMax =  -9.77709291305473E-08  8.86626061391844E+00
 cg2d: Sum(rhs),rhsMax =  -9.77132472712583E-08  8.87146147123075E+00
 cg2d: Sum(rhs),rhsMax =  -9.76563327981239E-08  8.87665923110881E+00
 cg2d: Sum(rhs),rhsMax =  -9.75990843699037E-08  8.88185530584736E+00
 cg2d: Sum(rhs),rhsMax =  -9.75420704207863E-08  8.88705095973601E+00
 EXTERNAL_FIELDS_LOAD, it=   3600030 : Reading new data, i0,i1=    1    2 (prev=   12    1 )
 DIC_FIELDS_LOAD, it=   3600030 : Reading new data, i0,i1=    1    2 (prev=   12    1 )
 cg2d: Sum(rhs),rhsMax =  -9.74853406887632E-08  8.89224735691429E+00
 cg2d: Sum(rhs),rhsMax =  -9.74287814869967E-08  8.89742706375180E+00
 cg2d: Sum(rhs),rhsMax =  -9.73723857100595E-08  8.90258000132907E+00
 cg2d: Sum(rhs),rhsMax =  -9.73164659967551E-08  8.90769672951691E+00
 cg2d: Sum(rhs),rhsMax =  -9.72612284044772E-08  8.91276878246959E+00
 cg2d: Sum(rhs),rhsMax =  -9.72070637317302E-08  8.91778889429735E+00
 cg2d: Sum(rhs),rhsMax =  -9.71530482729577E-08  8.92275113682099E+00
 cg2d: Sum(rhs),rhsMax =  -9.70993241367069E-08  8.92765100404361E+00
 cg2d: Sum(rhs),rhsMax =  -9.70471916161841E-08  8.93248545016401E+00
 cg2d: Sum(rhs),rhsMax =  -9.69955280538670E-08  8.93725287491615E+00
 cg2d: Sum(rhs),rhsMax =  -9.69441273923621E-08  8.94195305183593E+00
 cg2d: Sum(rhs),rhsMax =  -9.68941833434656E-08  8.94658701582531E+00
 cg2d: Sum(rhs),rhsMax =  -9.68450208915783E-08  8.95115692214719E+00
 cg2d: Sum(rhs),rhsMax =  -9.67962705544778E-08  8.95566589123099E+00
 cg2d: Sum(rhs),rhsMax =  -9.67482165492584E-08  8.96011786358850E+00
 cg2d: Sum(rhs),rhsMax =  -9.67008020325011E-08  8.96451747891563E+00
 cg2d: Sum(rhs),rhsMax =  -9.66539346336504E-08  8.96886998187158E+00
 cg2d: Sum(rhs),rhsMax =  -9.66078843589457E-08  8.97318115409823E+00
 cg2d: Sum(rhs),rhsMax =  -9.65621254067628E-08  8.97745726495199E+00
 cg2d: Sum(rhs),rhsMax =  -9.65159685506478E-08  8.98170502198163E+00
 cg2d: Sum(rhs),rhsMax =  -9.64709272466280E-08  8.98593151889555E+00
 cg2d: Sum(rhs),rhsMax =  -9.64258006774799E-08  8.99014423145949E+00
 cg2d: Sum(rhs),rhsMax =  -9.63806954246138E-08  8.99435085408351E+00
 cg2d: Sum(rhs),rhsMax =  -9.63354978011921E-08  8.99855914272681E+00
 cg2d: Sum(rhs),rhsMax =  -9.62904493917449E-08  9.00277662786875E+00
 cg2d: Sum(rhs),rhsMax =  -9.62449746566563E-08  9.00700998220796E+00
 cg2d: Sum(rhs),rhsMax =  -9.61997557169525E-08  9.01126574761483E+00
 cg2d: Sum(rhs),rhsMax =  -9.61540180810516E-08  9.01555039729210E+00
 cg2d: Sum(rhs),rhsMax =  -9.61077120109621E-08  9.01986971435378E+00
 cg2d: Sum(rhs),rhsMax =  -9.60613775191632E-08  9.02422880815445E+00
 cg2d: Sum(rhs),rhsMax =  -9.60143182737738E-08  9.02863205182447E+00
 cg2d: Sum(rhs),rhsMax =  -9.59668398081703E-08  9.03308295193821E+00
 cg2d: Sum(rhs),rhsMax =  -9.59189492277801E-08  9.03758400719746E+00
 cg2d: Sum(rhs),rhsMax =  -9.58706323217484E-08  9.04213663854453E+00
 cg2d: Sum(rhs),rhsMax =  -9.58215622404168E-08  9.04674109185253E+00
 cg2d: Sum(rhs),rhsMax =  -9.57721724148541E-08  9.05139640217902E+00
 cg2d: Sum(rhs),rhsMax =  -9.57223775799321E-08  9.05610040614876E+00
 cg2d: Sum(rhs),rhsMax =  -9.56718224642827E-08  9.06084979109159E+00
 cg2d: Sum(rhs),rhsMax =  -9.56211039238042E-08  9.06564017672268E+00
 cg2d: Sum(rhs),rhsMax =  -9.55700798499493E-08  9.07046622792088E+00
 cg2d: Sum(rhs),rhsMax =  -9.55189918272481E-08  9.07532179655311E+00
 cg2d: Sum(rhs),rhsMax =  -9.54672145780933E-08  9.08020008054443E+00
 cg2d: Sum(rhs),rhsMax =  -9.54156860188959E-08  9.08509379067778E+00
 cg2d: Sum(rhs),rhsMax =  -9.53640864054250E-08  9.08999532389517E+00
 cg2d: Sum(rhs),rhsMax =  -9.53120391500306E-08  9.09489685062687E+00
 cg2d: Sum(rhs),rhsMax =  -9.52604963799786E-08  9.09979078670731E+00
 cg2d: Sum(rhs),rhsMax =  -9.52091738781746E-08  9.10466952325132E+00
 cg2d: Sum(rhs),rhsMax =  -9.51581995423112E-08  9.10952586151125E+00
 cg2d: Sum(rhs),rhsMax =  -9.51075378452515E-08  9.11435305322486E+00
 cg2d: Sum(rhs),rhsMax =  -9.50568974644739E-08  9.11914489544444E+00
 cg2d: Sum(rhs),rhsMax =  -9.50070173644235E-08  9.12389583482653E+00
 cg2d: Sum(rhs),rhsMax =  -9.49582670273230E-08  9.12860106773695E+00
 cg2d: Sum(rhs),rhsMax =  -9.49094669522310E-08  9.13325671324743E+00
 cg2d: Sum(rhs),rhsMax =  -9.48612637330370E-08  9.13785989332165E+00
 cg2d: Sum(rhs),rhsMax =  -9.48139060596986E-08  9.14240888612431E+00
 cg2d: Sum(rhs),rhsMax =  -9.47671381368309E-08  9.14690322805975E+00
 cg2d: Sum(rhs),rhsMax =  -9.47210025969980E-08  9.15134376400067E+00
 cg2d: Sum(rhs),rhsMax =  -9.46753857533622E-08  9.15573262291172E+00
 cg2d: Sum(rhs),rhsMax =  -9.46305078741716E-08  9.16007311317651E+00
 cg2d: Sum(rhs),rhsMax =  -9.45855020972886E-08  9.16436954661381E+00
 EXTERNAL_FIELDS_LOAD, it=   3600090 : Reading new data, i0,i1=    2    3 (prev=    1    2 )
 DIC_FIELDS_LOAD, it=   3600090 : Reading new data, i0,i1=    2    3 (prev=    1    2 )
 cg2d: Sum(rhs),rhsMax =  -9.45416047670733E-08  9.16862700792054E+00
 cg2d: Sum(rhs),rhsMax =  -9.44977784911316E-08  9.17286965792043E+00
 cg2d: Sum(rhs),rhsMax =  -9.44538882663437E-08  9.17711460232796E+00
 cg2d: Sum(rhs),rhsMax =  -9.44097777733077E-08  9.18137827264839E+00
 cg2d: Sum(rhs),rhsMax =  -9.43655606988614E-08  9.18567586102450E+00
 cg2d: Sum(rhs),rhsMax =  -9.43208533499273E-08  9.19002086507332E+00
 cg2d: Sum(rhs),rhsMax =  -9.42755065125311E-08  9.19442473147613E+00
 cg2d: Sum(rhs),rhsMax =  -9.42294988703907E-08  9.19889660310093E+00
 cg2d: Sum(rhs),rhsMax =  -9.41831217460276E-08  9.20344317156002E+00
 cg2d: Sum(rhs),rhsMax =  -9.41357711781166E-08  9.20806863385625E+00
 cg2d: Sum(rhs),rhsMax =  -9.40875679589226E-08  9.21277472508850E+00
 cg2d: Sum(rhs),rhsMax =  -9.40387323566938E-08  9.21756082935263E+00
 cg2d: Sum(rhs),rhsMax =  -9.39891506845925E-08  9.22242415169496E+00
 cg2d: Sum(rhs),rhsMax =  -9.39387589937724E-08  9.22735992735964E+00
 cg2d: Sum(rhs),rhsMax =  -9.38874578082505E-08  9.23236166048178E+00
 cg2d: Sum(rhs),rhsMax =  -9.38360713576003E-08  9.23742136926884E+00
 cg2d: Sum(rhs),rhsMax =  -9.37847204340869E-08  9.24252982829311E+00
 cg2d: Sum(rhs),rhsMax =  -9.37326518624104E-08  9.24767682825910E+00
 cg2d: Sum(rhs),rhsMax =  -9.36799651185538E-08  9.25285135651627E+00
 cg2d: Sum(rhs),rhsMax =  -9.36278468088858E-08  9.25804181556396E+00
 cg2d: Sum(rhs),rhsMax =  -9.35753803332773E-08  9.26323624437734E+00
 cg2d: Sum(rhs),rhsMax =  -9.35233543941649E-08  9.26842252954541E+00
 cg2d: Sum(rhs),rhsMax =  -9.34712076627875E-08  9.27358855590945E+00
 cg2d: Sum(rhs),rhsMax =  -9.34198851609835E-08  9.27872221865362E+00
 cg2d: Sum(rhs),rhsMax =  -9.33687331894362E-08  9.28381269175841E+00
 cg2d: Sum(rhs),rhsMax =  -9.33183130769066E-08  9.28884990364347E+00
 cg2d: Sum(rhs),rhsMax =  -9.32684542931383E-08  9.29382460831193E+00
 cg2d: Sum(rhs),rhsMax =  -9.32194410552256E-08  9.29872876125425E+00
 cg2d: Sum(rhs),rhsMax =  -9.31711383600486E-08  9.30355578941157E+00
 cg2d: Sum(rhs),rhsMax =  -9.31240364820951E-08  9.30830071441787E+00
 cg2d: Sum(rhs),rhsMax =  -9.30773893514925E-08  9.31296016039586E+00
 cg2d: Sum(rhs),rhsMax =  -9.30318719838397E-08  9.31753230345820E+00
 cg2d: Sum(rhs),rhsMax =  -9.29872783217434E-08  9.32201677457960E+00
 cg2d: Sum(rhs),rhsMax =  -9.29437931063148E-08  9.32641453687162E+00
 cg2d: Sum(rhs),rhsMax =  -9.29007910599466E-08  9.33072777407330E+00
 cg2d: Sum(rhs),rhsMax =  -9.28590253579387E-08  9.33495977832897E+00
 cg2d: Sum(rhs),rhsMax =  -9.28177001924269E-08  9.33911483571782E+00
 cg2d: Sum(rhs),rhsMax =  -9.27770358316593E-08  9.34319809772528E+00
 cg2d: Sum(rhs),rhsMax =  -9.27373591252945E-08  9.34721542637213E+00
 cg2d: Sum(rhs),rhsMax =  -9.26982295368362E-08  9.35117321728378E+00
 cg2d: Sum(rhs),rhsMax =  -9.26594978523099E-08  9.35507820898651E+00
 cg2d: Sum(rhs),rhsMax =  -9.26212777585533E-08  9.35893728101038E+00
 cg2d: Sum(rhs),rhsMax =  -9.25836900478316E-08  9.36275724876052E+00
 cg2d: Sum(rhs),rhsMax =  -9.25467347201447E-08  9.36654466497940E+00
 cg2d: Sum(rhs),rhsMax =  -9.25093388559617E-08  9.37030563739009E+00
 cg2d: Sum(rhs),rhsMax =  -9.24723693174201E-08  9.37404566529748E+00
 cg2d: Sum(rhs),rhsMax =  -9.24358261045199E-08  9.37776950669782E+00
 cg2d: Sum(rhs),rhsMax =  -9.23998015878169E-08  9.38148107939576E+00
 cg2d: Sum(rhs),rhsMax =  -9.23633649563271E-08  9.38518340080342E+00
 cg2d: Sum(rhs),rhsMax =  -9.23271628039402E-08  9.38887856431341E+00
 cg2d: Sum(rhs),rhsMax =  -9.22907545941598E-08  9.39256775253961E+00
 cg2d: Sum(rhs),rhsMax =  -9.22549361348501E-08  9.39625127829926E+00
 cg2d: Sum(rhs),rhsMax =  -9.22186487173349E-08  9.39992865313115E+00
 cg2d: Sum(rhs),rhsMax =  -9.21831713185384E-08  9.40359867110262E+00
 cg2d: Sum(rhs),rhsMax =  -9.21473457538013E-08  9.40725949891390E+00
 cg2d: Sum(rhs),rhsMax =  -9.21119038821416E-08  9.41090875978471E+00
 cg2d: Sum(rhs),rhsMax =  -9.20763412182168E-08  9.41454361858659E+00
 cg2d: Sum(rhs),rhsMax =  -9.20410343496769E-08  9.41816086827301E+00
 cg2d: Sum(rhs),rhsMax =  -9.20060685416502E-08  9.42175701532902E+00
 cg2d: Sum(rhs),rhsMax =  -9.19711879987517E-08  9.42532836100955E+00
 EXTERNAL_FIELDS_LOAD, it=   3600150 : Reading new data, i0,i1=    3    4 (prev=    2    3 )
 DIC_FIELDS_LOAD, it=   3600150 : Reading new data, i0,i1=    3    4 (prev=    2    3 )
 cg2d: Sum(rhs),rhsMax =  -9.19367622032041E-08  9.42887108055882E+00
 cg2d: Sum(rhs),rhsMax =  -9.19030327395376E-08  9.43235832256638E+00
 cg2d: Sum(rhs),rhsMax =  -9.18696727580937E-08  9.43577294710938E+00
 cg2d: Sum(rhs),rhsMax =  -9.18375349101552E-08  9.43909901719340E+00
 cg2d: Sum(rhs),rhsMax =  -9.18056457521743E-08  9.44232226351574E+00
 cg2d: Sum(rhs),rhsMax =  -9.17754618967592E-08  9.44543045713848E+00
 cg2d: Sum(rhs),rhsMax =  -9.17468696570722E-08  9.44841368652191E+00
 cg2d: Sum(rhs),rhsMax =  -9.17188671678559E-08  9.45126453300903E+00
 cg2d: Sum(rhs),rhsMax =  -9.16929749905648E-08  9.45397814472091E+00
 cg2d: Sum(rhs),rhsMax =  -9.16680278351123E-08  9.45655223330268E+00
 cg2d: Sum(rhs),rhsMax =  -9.16445941356869E-08  9.45898700078271E+00
 cg2d: Sum(rhs),rhsMax =  -9.16223754643397E-08  9.46128500172268E+00
 cg2d: Sum(rhs),rhsMax =  -9.16011231311131E-08  9.46345095767279E+00
 cg2d: Sum(rhs),rhsMax =  -9.15811568802383E-08  9.46549153513779E+00
 cg2d: Sum(rhs),rhsMax =  -9.15625619768434E-08  9.46741508859273E+00
 cg2d: Sum(rhs),rhsMax =  -9.15451252581079E-08  9.46923137659912E+00
 cg2d: Sum(rhs),rhsMax =  -9.15285980340741E-08  9.47095124324780E+00
 cg2d: Sum(rhs),rhsMax =  -9.15126108225195E-08  9.47258633929544E+00
 cg2d: Sum(rhs),rhsMax =  -9.14974762622478E-08  9.47414881667898E+00
 cg2d: Sum(rhs),rhsMax =  -9.14831588261222E-08  9.47565102854520E+00
 cg2d: Sum(rhs),rhsMax =  -9.14691185016636E-08  9.47710524161440E+00
 cg2d: Sum(rhs),rhsMax =  -9.14552913400257E-08  9.47852337330871E+00
 cg2d: Sum(rhs),rhsMax =  -9.14417910280463E-08  9.47991675839448E+00
 cg2d: Sum(rhs),rhsMax =  -9.14288023068366E-08  9.48129594936036E+00
 cg2d: Sum(rhs),rhsMax =  -9.14153162057119E-08  9.48267055268677E+00
 cg2d: Sum(rhs),rhsMax =  -9.14016951014673E-08  9.48404910672501E+00
 cg2d: Sum(rhs),rhsMax =  -9.13883866360266E-08  9.48543898881096E+00
 cg2d: Sum(rhs),rhsMax =  -9.13749147457565E-08  9.48684634838855E+00
 cg2d: Sum(rhs),rhsMax =  -9.13611231112554E-08  9.48827608016959E+00
 cg2d: Sum(rhs),rhsMax =  -9.13465854068818E-08  9.48973182637241E+00
 cg2d: Sum(rhs),rhsMax =  -9.13324456064402E-08  9.49121598932757E+00
 cg2d: Sum(rhs),rhsMax =  -9.13176805283911E-08  9.49272976482376E+00
 cg2d: Sum(rhs),rhsMax =  -9.13029793991882E-08  9.49427318407705E+00
 cg2d: Sum(rhs),rhsMax =  -9.12876600978052E-08  9.49584517202971E+00
 cg2d: Sum(rhs),rhsMax =  -9.12722768475760E-08  9.49744362566448E+00
 cg2d: Sum(rhs),rhsMax =  -9.12563962174318E-08  9.49906550905340E+00
 cg2d: Sum(rhs),rhsMax =  -9.12406292741252E-08  9.50070696299551E+00
 cg2d: Sum(rhs),rhsMax =  -9.12245567974423E-08  9.50236342680402E+00
 cg2d: Sum(rhs),rhsMax =  -9.12086122184519E-08  9.50402976802920E+00
 cg2d: Sum(rhs),rhsMax =  -9.11920636781360E-08  9.50570042893596E+00
 cg2d: Sum(rhs),rhsMax =  -9.11760835720088E-08  9.50736956748404E+00
 cg2d: Sum(rhs),rhsMax =  -9.11599897790438E-08  9.50903122489705E+00
 cg2d: Sum(rhs),rhsMax =  -9.11439812512072E-08  9.51067944299842E+00
 cg2d: Sum(rhs),rhsMax =  -9.11286619498242E-08  9.51230836255520E+00
 cg2d: Sum(rhs),rhsMax =  -9.11128452685261E-08  9.51391232343393E+00
 cg2d: Sum(rhs),rhsMax =  -9.10978172896648E-08  9.51548598638282E+00
 cg2d: Sum(rhs),rhsMax =  -9.10825903588375E-08  9.51702443978652E+00
 cg2d: Sum(rhs),rhsMax =  -9.10679744947629E-08  9.51852327194360E+00
 cg2d: Sum(rhs),rhsMax =  -9.10538062726118E-08  9.51997861079381E+00
 cg2d: Sum(rhs),rhsMax =  -9.10403272769145E-08  9.52138713289450E+00
 cg2d: Sum(rhs),rhsMax =  -9.10271680254482E-08  9.52274605554116E+00
 cg2d: Sum(rhs),rhsMax =  -9.10143498344951E-08  9.52405313717331E+00
 cg2d: Sum(rhs),rhsMax =  -9.10022919242692E-08  9.52530666028232E+00
 cg2d: Sum(rhs),rhsMax =  -9.09905324419924E-08  9.52650541109617E+00
 cg2d: Sum(rhs),rhsMax =  -9.09794692915966E-08  9.52764864727963E+00
 cg2d: Sum(rhs),rhsMax =  -9.09689816808168E-08  9.52873605079492E+00
 cg2d: Sum(rhs),rhsMax =  -9.09588422359775E-08  9.52976767849440E+00
 cg2d: Sum(rhs),rhsMax =  -9.09493280687457E-08  9.53074391639987E+00
 cg2d: Sum(rhs),rhsMax =  -9.09404391791213E-08  9.53166530103624E+00
 cg2d: Sum(rhs),rhsMax =  -9.09316284491979E-08  9.53253252588939E+00
 EXTERNAL_FIELDS_LOAD, it=   3600210 : Reading new data, i0,i1=    4    5 (prev=    3    4 )
 DIC_FIELDS_LOAD, it=   3600210 : Reading new data, i0,i1=    4    5 (prev=    3    4 )
 cg2d: Sum(rhs),rhsMax =  -9.09236845814121E-08  9.53334634295211E+00
 cg2d: Sum(rhs),rhsMax =  -9.09162238826866E-08  9.53412016630968E+00
 cg2d: Sum(rhs),rhsMax =  -9.09088555545168E-08  9.53486144691540E+00
 cg2d: Sum(rhs),rhsMax =  -9.09020556605356E-08  9.53557668814411E+00
 cg2d: Sum(rhs),rhsMax =  -9.08950781308704E-08  9.53626990934916E+00
 cg2d: Sum(rhs),rhsMax =  -9.08885269268467E-08  9.53694479201801E+00
 cg2d: Sum(rhs),rhsMax =  -9.08819686173956E-08  9.53760402798875E+00
 cg2d: Sum(rhs),rhsMax =  -9.08758792661502E-08  9.53824943192211E+00
 cg2d: Sum(rhs),rhsMax =  -9.08692001644340E-08  9.53888215688552E+00
 cg2d: Sum(rhs),rhsMax =  -9.08633310814366E-08  9.53950304357000E+00
 cg2d: Sum(rhs),rhsMax =  -9.08575117364308E-08  9.54011304176576E+00
 cg2d: Sum(rhs),rhsMax =  -9.08516142317239E-08  9.54071301635899E+00
 cg2d: Sum(rhs),rhsMax =  -9.08458943627011E-08  9.54130322912294E+00
 cg2d: Sum(rhs),rhsMax =  -9.08400252797037E-08  9.54188272003942E+00
 cg2d: Sum(rhs),rhsMax =  -9.08349306882883E-08  9.54244934290944E+00
 cg2d: Sum(rhs),rhsMax =  -9.08295305634965E-08  9.54299999628384E+00
 cg2d: Sum(rhs),rhsMax =  -9.08241872821236E-08  9.54353092308816E+00
 cg2d: Sum(rhs),rhsMax =  -9.08189861092978E-08  9.54403796863502E+00
 cg2d: Sum(rhs),rhsMax =  -9.08142894218145E-08  9.54451678452915E+00
 cg2d: Sum(rhs),rhsMax =  -9.08097916862971E-08  9.54496303374895E+00
 cg2d: Sum(rhs),rhsMax =  -9.08056705384297E-08  9.54537256688658E+00
 cg2d: Sum(rhs),rhsMax =  -9.08016417611179E-08  9.54574155534994E+00
 cg2d: Sum(rhs),rhsMax =  -9.07979256226099E-08  9.54606657177462E+00
 cg2d: Sum(rhs),rhsMax =  -9.07952681927782E-08  9.54634467959792E+00
 cg2d: Sum(rhs),rhsMax =  -9.07924189164078E-08  9.54657345840157E+00
 cg2d: Sum(rhs),rhsMax =  -9.07902162339269E-08  9.54675102924543E+00
 cg2d: Sum(rhs),rhsMax =  -9.07886743561903E-08  9.54687605379506E+00
 cg2d: Sum(rhs),rhsMax =  -9.07877648614885E-08  9.54694771403842E+00
 cg2d: Sum(rhs),rhsMax =  -9.07869193156330E-08  9.54696566951997E+00
 cg2d: Sum(rhs),rhsMax =  -9.07865995714019E-08  9.54692999068711E+00
 cg2d: Sum(rhs),rhsMax =  -9.07872106381546E-08  9.54684108541375E+00
 cg2d: Sum(rhs),rhsMax =  -9.07884682987969E-08  9.54669963264824E+00
 cg2d: Sum(rhs),rhsMax =  -9.07898467517043E-08  9.54650651972953E+00
 cg2d: Sum(rhs),rhsMax =  -9.07915449488428E-08  9.54626274758502E+00
 cg2d: Sum(rhs),rhsMax =  -9.07941455352557E-08  9.54596935750525E+00
 cg2d: Sum(rhs),rhsMax =  -9.07970800767544E-08  9.54562738075971E+00
 cg2d: Sum(rhs),rhsMax =  -9.08000501453898E-08  9.54523778248193E+00
 cg2d: Sum(rhs),rhsMax =  -9.08038089164620E-08  9.54480140259877E+00
 cg2d: Sum(rhs),rhsMax =  -9.08078732209106E-08  9.54431888382345E+00
 cg2d: Sum(rhs),rhsMax =  -9.08128896526250E-08  9.54379063440704E+00
 cg2d: Sum(rhs),rhsMax =  -9.08179274006216E-08  9.54321682610369E+00
 cg2d: Sum(rhs),rhsMax =  -9.08231072571652E-08  9.54259741627488E+00
 cg2d: Sum(rhs),rhsMax =  -9.08294239820862E-08  9.54193218180504E+00
 cg2d: Sum(rhs),rhsMax =  -9.08357407070071E-08  9.54122075566689E+00
 cg2d: Sum(rhs),rhsMax =  -9.08426116552619E-08  9.54046266149910E+00
 cg2d: Sum(rhs),rhsMax =  -9.08497668206110E-08  9.53965734943055E+00
 cg2d: Sum(rhs),rhsMax =  -9.08576467395505E-08  9.53880424419014E+00
 cg2d: Sum(rhs),rhsMax =  -9.08659032461401E-08  9.53790282192021E+00
 cg2d: Sum(rhs),rhsMax =  -9.08746713434994E-08  9.53695268180845E+00
 cg2d: Sum(rhs),rhsMax =  -9.08840078750472E-08  9.53595362230667E+00
 cg2d: Sum(rhs),rhsMax =  -9.08936215182621E-08  9.53490571447803E+00
 cg2d: Sum(rhs),rhsMax =  -9.09042654484438E-08  9.53380930168364E+00
 cg2d: Sum(rhs),rhsMax =  -9.09145470018302E-08  9.53266493640869E+00
 cg2d: Sum(rhs),rhsMax =  -9.09259227910297E-08  9.53147332889492E+00
 cg2d: Sum(rhs),rhsMax =  -9.09384141323244E-08  9.53023537646442E+00
 cg2d: Sum(rhs),rhsMax =  -9.09505217805417E-08  9.52895220993865E+00
 cg2d: Sum(rhs),rhsMax =  -9.09629278567081E-08  9.52762520262973E+00
 cg2d: Sum(rhs),rhsMax =  -9.09757815747980E-08  9.52625594300855E+00
 cg2d: Sum(rhs),rhsMax =  -9.09892747813501E-08  9.52484621149773E+00
 cg2d: Sum(rhs),rhsMax =  -9.10029882561503E-08  9.52339794221070E+00
 EXTERNAL_FIELDS_LOAD, it=   3600270 : Reading new data, i0,i1=    5    6 (prev=    4    5 )
 DIC_FIELDS_LOAD, it=   3600270 : Reading new data, i0,i1=    5    6 (prev=    4    5 )
 cg2d: Sum(rhs),rhsMax =  -9.10169930534721E-08  9.52191318167782E+00
 cg2d: Sum(rhs),rhsMax =  -9.10311257484864E-08  9.52041761022813E+00
 cg2d: Sum(rhs),rhsMax =  -9.10455213443129E-08  9.51892843351038E+00
 cg2d: Sum(rhs),rhsMax =  -9.10593485059508E-08  9.51746258399289E+00
 cg2d: Sum(rhs),rhsMax =  -9.10729625047679E-08  9.51603636817957E+00
 cg2d: Sum(rhs),rhsMax =  -9.10860507019606E-08  9.51466517931999E+00
 cg2d: Sum(rhs),rhsMax =  -9.10986344138109E-08  9.51336322967766E+00
 cg2d: Sum(rhs),rhsMax =  -9.11102233658312E-08  9.51214329321166E+00
 cg2d: Sum(rhs),rhsMax =  -9.11212367782355E-08  9.51101645114812E+00
 cg2d: Sum(rhs),rhsMax =  -9.11308219997409E-08  9.50999185515969E+00
 cg2d: Sum(rhs),rhsMax =  -9.11397606273567E-08  9.50907652378690E+00
 cg2d: Sum(rhs),rhsMax =  -9.11473847509114E-08  9.50827517814543E+00
 cg2d: Sum(rhs),rhsMax =  -9.11540354309182E-08  9.50759014752173E+00
 cg2d: Sum(rhs),rhsMax =  -9.11595421371203E-08  9.50702134377118E+00
 cg2d: Sum(rhs),rhsMax =  -9.11640682943471E-08  9.50656629011210E+00
 cg2d: Sum(rhs),rhsMax =  -9.11673012637948E-08  9.50622019182364E+00
 cg2d: Sum(rhs),rhsMax =  -9.11696744765322E-08  9.50597606771963E+00
 cg2d: Sum(rhs),rhsMax =  -9.11708539774736E-08  9.50582494250500E+00
 cg2d: Sum(rhs),rhsMax =  -9.11716497853376E-08  9.50575608648473E+00
 cg2d: Sum(rhs),rhsMax =  -9.11714224116622E-08  9.50575729587021E+00
 cg2d: Sum(rhs),rhsMax =  -9.11708468720462E-08  9.50581523373235E+00
 cg2d: Sum(rhs),rhsMax =  -9.11699018502077E-08  9.50591575069248E+00
 cg2d: Sum(rhs),rhsMax =  -9.11685589244371E-08  9.50604420974297E+00
 cg2d: Sum(rhs),rhsMax =  -9.11669744141363E-08  9.50618583284504E+00
 cg2d: Sum(rhs),rhsMax =  -9.11656883317846E-08  9.50632606101357E+00
 cg2d: Sum(rhs),rhsMax =  -9.11643525114414E-08  9.50645090757042E+00
 cg2d: Sum(rhs),rhsMax =  -9.11635567035773E-08  9.50654729113363E+00
 cg2d: Sum(rhs),rhsMax =  -9.11632938027651E-08  9.50660334354173E+00
 cg2d: Sum(rhs),rhsMax =  -9.11633009081925E-08  9.50660868062301E+00
 cg2d: Sum(rhs),rhsMax =  -9.11639332912273E-08  9.50655462562515E+00
 cg2d: Sum(rhs),rhsMax =  -9.11649706836215E-08  9.50643436311089E+00
 cg2d: Sum(rhs),rhsMax =  -9.11672302095212E-08  9.50624304674150E+00
 cg2d: Sum(rhs),rhsMax =  -9.11696460548228E-08  9.50597781905916E+00
 cg2d: Sum(rhs),rhsMax =  -9.11727440211507E-08  9.50563777710892E+00
 cg2d: Sum(rhs),rhsMax =  -9.11770854372662E-08  9.50522393135291E+00
 cg2d: Sum(rhs),rhsMax =  -9.11816186999204E-08  9.50473911463816E+00
 cg2d: Sum(rhs),rhsMax =  -9.11870614572763E-08  9.50418773930678E+00
 cg2d: Sum(rhs),rhsMax =  -9.11928168534359E-08  9.50357558691374E+00
 cg2d: Sum(rhs),rhsMax =  -9.11992827923314E-08  9.50290964447458E+00
 cg2d: Sum(rhs),rhsMax =  -9.12065729608003E-08  9.50219791542795E+00
 cg2d: Sum(rhs),rhsMax =  -9.12139270781154E-08  9.50144918276843E+00
 cg2d: Sum(rhs),rhsMax =  -9.12212811954305E-08  9.50067274580360E+00
 cg2d: Sum(rhs),rhsMax =  -9.12293955934729E-08  9.49987815929010E+00
 cg2d: Sum(rhs),rhsMax =  -9.12369131356172E-08  9.49907498366882E+00
 cg2d: Sum(rhs),rhsMax =  -9.12447788437021E-08  9.49827255755378E+00
 cg2d: Sum(rhs),rhsMax =  -9.12528008711888E-08  9.49747978836020E+00
 cg2d: Sum(rhs),rhsMax =  -9.12602686753416E-08  9.49670496341604E+00
 cg2d: Sum(rhs),rhsMax =  -9.12679780640246E-08  9.49595558374171E+00
 cg2d: Sum(rhs),rhsMax =  -9.12747850634332E-08  9.49523821505845E+00
 cg2d: Sum(rhs),rhsMax =  -9.12811941589098E-08  9.49455836839740E+00
 cg2d: Sum(rhs),rhsMax =  -9.12878306280618E-08  9.49392042323925E+00
 cg2d: Sum(rhs),rhsMax =  -9.12937139219139E-08  9.49332754785973E+00
 cg2d: Sum(rhs),rhsMax =  -9.12992632606802E-08  9.49278165465699E+00
 cg2d: Sum(rhs),rhsMax =  -9.13035833605136E-08  9.49228339433203E+00
 cg2d: Sum(rhs),rhsMax =  -9.13086424247922E-08  9.49183218209292E+00
 cg2d: Sum(rhs),rhsMax =  -9.13127422563775E-08  9.49142625728328E+00
 cg2d: Sum(rhs),rhsMax =  -9.13163518134752E-08  9.49106276286301E+00
 cg2d: Sum(rhs),rhsMax =  -9.13194782015125E-08  9.49073783789306E+00
 cg2d: Sum(rhs),rhsMax =  -9.13225406407037E-08  9.49044672400271E+00
 cg2d: Sum(rhs),rhsMax =  -9.13253046519458E-08  9.49018390323782E+00
 EXTERNAL_FIELDS_LOAD, it=   3600330 : Reading new data, i0,i1=    6    7 (prev=    5    6 )
 DIC_FIELDS_LOAD, it=   3600330 : Reading new data, i0,i1=    6    7 (prev=    5    6 )
 cg2d: Sum(rhs),rhsMax =  -9.13276210212643E-08  9.48994325700856E+00
 cg2d: Sum(rhs),rhsMax =  -9.13303352945150E-08  9.48970801758053E+00
 cg2d: Sum(rhs),rhsMax =  -9.13328221940901E-08  9.48946471682098E+00
 cg2d: Sum(rhs),rhsMax =  -9.13353943587936E-08  9.48919980375378E+00
 cg2d: Sum(rhs),rhsMax =  -9.13383644274290E-08  9.48889996251626E+00
 cg2d: Sum(rhs),rhsMax =  -9.13418460868343E-08  9.48855235316500E+00
 cg2d: Sum(rhs),rhsMax =  -9.13461093432488E-08  9.48814487205053E+00
 cg2d: Sum(rhs),rhsMax =  -9.13508344524416E-08  9.48766639266868E+00
 cg2d: Sum(rhs),rhsMax =  -9.13563624749258E-08  9.48710698236420E+00
 cg2d: Sum(rhs),rhsMax =  -9.13624518261713E-08  9.48645808347463E+00
 cg2d: Sum(rhs),rhsMax =  -9.13698130489138E-08  9.48571268422533E+00
 cg2d: Sum(rhs),rhsMax =  -9.13783111400335E-08  9.48486545850383E+00
 cg2d: Sum(rhs),rhsMax =  -9.13876760932908E-08  9.48391285858374E+00
 cg2d: Sum(rhs),rhsMax =  -9.13977800109933E-08  9.48285315351105E+00
 cg2d: Sum(rhs),rhsMax =  -9.14093334358768E-08  9.48168641391458E+00
 cg2d: Sum(rhs),rhsMax =  -9.14215760872139E-08  9.48041445516485E+00
 cg2d: Sum(rhs),rhsMax =  -9.14348703418000E-08  9.47904073781749E+00
 cg2d: Sum(rhs),rhsMax =  -9.14490314585237E-08  9.47757022510765E+00
 cg2d: Sum(rhs),rhsMax =  -9.14641802296501E-08  9.47600920384239E+00
 cg2d: Sum(rhs),rhsMax =  -9.14802384954783E-08  9.47436507523804E+00
 cg2d: Sum(rhs),rhsMax =  -9.14970428311790E-08  9.47264612546539E+00
 cg2d: Sum(rhs),rhsMax =  -9.15143658630768E-08  9.47086128598380E+00
 cg2d: Sum(rhs),rhsMax =  -9.15317244221114E-08  9.46901988541289E+00
 cg2d: Sum(rhs),rhsMax =  -9.15503548526431E-08  9.46713139755286E+00
 cg2d: Sum(rhs),rhsMax =  -9.15688005420634E-08  9.46520519129246E+00
 cg2d: Sum(rhs),rhsMax =  -9.15879354579374E-08  9.46325027783096E+00
 cg2d: Sum(rhs),rhsMax =  -9.16070561629567E-08  9.46127510172983E+00
 cg2d: Sum(rhs),rhsMax =  -9.16269016215665E-08  9.45928736176468E+00
 cg2d: Sum(rhs),rhsMax =  -9.16458375854745E-08  9.45729384446051E+00
 cg2d: Sum(rhs),rhsMax =  -9.16652354021608E-08  9.45530032221759E+00
 cg2d: Sum(rhs),rhsMax =  -9.16847469056847E-08  9.45331147339530E+00
 cg2d: Sum(rhs),rhsMax =  -9.17041660386531E-08  9.45133082537812E+00
 cg2d: Sum(rhs),rhsMax =  -9.17234714847837E-08  9.44936073119909E+00
 cg2d: Sum(rhs),rhsMax =  -9.17423008672813E-08  9.44740238220463E+00
 cg2d: Sum(rhs),rhsMax =  -9.17614002560185E-08  9.44545585645758E+00
 cg2d: Sum(rhs),rhsMax =  -9.17801870059520E-08  9.44352020252140E+00
 cg2d: Sum(rhs),rhsMax =  -9.17989737558855E-08  9.44159355733174E+00
 cg2d: Sum(rhs),rhsMax =  -9.18179097197935E-08  9.43967327626014E+00
 cg2d: Sum(rhs),rhsMax =  -9.18367177860091E-08  9.43775607395104E+00
 cg2d: Sum(rhs),rhsMax =  -9.18552629514124E-08  9.43583817490269E+00
 cg2d: Sum(rhs),rhsMax =  -9.18742912858761E-08  9.43391546318717E+00
 cg2d: Sum(rhs),rhsMax =  -9.18933977800407E-08  9.43198362529795E+00
 cg2d: Sum(rhs),rhsMax =  -9.19123053222393E-08  9.43003828806143E+00
 cg2d: Sum(rhs),rhsMax =  -9.19319091963189E-08  9.42807514245689E+00
 cg2d: Sum(rhs),rhsMax =  -9.19516196518089E-08  9.42609005034801E+00
 cg2d: Sum(rhs),rhsMax =  -9.19711453661876E-08  9.42407914155286E+00
 cg2d: Sum(rhs),rhsMax =  -9.19916374186869E-08  9.42203890101561E+00
 cg2d: Sum(rhs),rhsMax =  -9.20122005254598E-08  9.41996625280574E+00
 cg2d: Sum(rhs),rhsMax =  -9.20328773190704E-08  9.41785862954787E+00
 cg2d: Sum(rhs),rhsMax =  -9.20541722848611E-08  9.41571402403211E+00
 cg2d: Sum(rhs),rhsMax =  -9.20761920042423E-08  9.41353104362712E+00
 cg2d: Sum(rhs),rhsMax =  -9.20975224971698E-08  9.41130897700722E+00
 cg2d: Sum(rhs),rhsMax =  -9.21202243375774E-08  9.40904782014454E+00
 cg2d: Sum(rhs),rhsMax =  -9.21427556477283E-08  9.40674826682519E+00
 cg2d: Sum(rhs),rhsMax =  -9.21658624974953E-08  9.40441167656376E+00
 cg2d: Sum(rhs),rhsMax =  -9.21897651551262E-08  9.40204003109270E+00
 cg2d: Sum(rhs),rhsMax =  -9.22136393910478E-08  9.39963588692061E+00
 cg2d: Sum(rhs),rhsMax =  -9.22377765277815E-08  9.39720232327049E+00
 cg2d: Sum(rhs),rhsMax =  -9.22617147125493E-08  9.39474287623570E+00
 cg2d: Sum(rhs),rhsMax =  -9.22866476571471E-08  9.39226147078604E+00
 EXTERNAL_FIELDS_LOAD, it=   3600390 : Reading new data, i0,i1=    7    8 (prev=    6    7 )
 DIC_FIELDS_LOAD, it=   3600390 : Reading new data, i0,i1=    7    8 (prev=    6    7 )
 cg2d: Sum(rhs),rhsMax =  -9.23120353490958E-08  9.38976233427929E+00
 cg2d: Sum(rhs),rhsMax =  -9.23369185557021E-08  9.38724381347799E+00
 cg2d: Sum(rhs),rhsMax =  -9.23620930848301E-08  9.38470550458213E+00
 cg2d: Sum(rhs),rhsMax =  -9.23878431535741E-08  9.38214640732935E+00
 cg2d: Sum(rhs),rhsMax =  -9.24133303215058E-08  9.37956498127073E+00
 cg2d: Sum(rhs),rhsMax =  -9.24395564538827E-08  9.37695924403383E+00
 cg2d: Sum(rhs),rhsMax =  -9.24659673273709E-08  9.37432689628576E+00
 cg2d: Sum(rhs),rhsMax =  -9.24926268908166E-08  9.37166545130188E+00
 cg2d: Sum(rhs),rhsMax =  -9.25199330481519E-08  9.36897236493602E+00
 cg2d: Sum(rhs),rhsMax =  -9.25472107837777E-08  9.36624514198210E+00
 cg2d: Sum(rhs),rhsMax =  -9.25749148450450E-08  9.36348144222541E+00
 cg2d: Sum(rhs),rhsMax =  -9.26027894365689E-08  9.36067916467522E+00
 cg2d: Sum(rhs),rhsMax =  -9.26316801042049E-08  9.35783651518778E+00
 cg2d: Sum(rhs),rhsMax =  -9.26604357687211E-08  9.35495205473915E+00
 cg2d: Sum(rhs),rhsMax =  -9.26899872411013E-08  9.35202472862356E+00
 cg2d: Sum(rhs),rhsMax =  -9.27198087197212E-08  9.34905386050751E+00
 cg2d: Sum(rhs),rhsMax =  -9.27502270542391E-08  9.34603912446753E+00
 cg2d: Sum(rhs),rhsMax =  -9.27809580275607E-08  9.34298052032945E+00
 cg2d: Sum(rhs),rhsMax =  -9.28122148025068E-08  9.33987837125357E+00
 cg2d: Sum(rhs),rhsMax =  -9.28438836922396E-08  9.33673332003228E+00
 cg2d: Sum(rhs),rhsMax =  -9.28756591633828E-08  9.33354631509102E+00
 cg2d: Sum(rhs),rhsMax =  -9.29085999246126E-08  9.33031856217985E+00
 cg2d: Sum(rhs),rhsMax =  -9.29414056827227E-08  9.32705144157814E+00
 cg2d: Sum(rhs),rhsMax =  -9.29742824951063E-08  9.32374640924821E+00
 cg2d: Sum(rhs),rhsMax =  -9.30079835370634E-08  9.32040491207867E+00
 cg2d: Sum(rhs),rhsMax =  -9.30417982658582E-08  9.31702830536998E+00
 cg2d: Sum(rhs),rhsMax =  -9.30764798567907E-08  9.31361778906816E+00
 cg2d: Sum(rhs),rhsMax =  -9.31104011669959E-08  9.31017435680010E+00
 cg2d: Sum(rhs),rhsMax =  -9.31454593455783E-08  9.30669874783390E+00
 cg2d: Sum(rhs),rhsMax =  -9.31809367443748E-08  9.30319140183628E+00
 cg2d: Sum(rhs),rhsMax =  -9.32159238686836E-08  9.29965242032067E+00
 cg2d: Sum(rhs),rhsMax =  -9.32518702256857E-08  9.29608155387300E+00
 cg2d: Sum(rhs),rhsMax =  -9.32883352788849E-08  9.29247816276956E+00
 cg2d: Sum(rhs),rhsMax =  -9.33245232204172E-08  9.28884120452690E+00
 cg2d: Sum(rhs),rhsMax =  -9.33613577558390E-08  9.28516924951164E+00
 cg2d: Sum(rhs),rhsMax =  -9.33982562401070E-08  9.28146051649491E+00
 cg2d: Sum(rhs),rhsMax =  -9.34364479121541E-08  9.27771291851975E+00
 cg2d: Sum(rhs),rhsMax =  -9.34740143065937E-08  9.27392411497484E+00
 cg2d: Sum(rhs),rhsMax =  -9.35126251988549E-08  9.27009157616147E+00
 cg2d: Sum(rhs),rhsMax =  -9.35518329470142E-08  9.26621266064052E+00
 cg2d: Sum(rhs),rhsMax =  -9.35912964905583E-08  9.26228469753356E+00
 cg2d: Sum(rhs),rhsMax =  -9.36311082000429E-08  9.25830502540661E+00
 cg2d: Sum(rhs),rhsMax =  -9.36718080879473E-08  9.25427104022615E+00
 cg2d: Sum(rhs),rhsMax =  -9.37130835154676E-08  9.25018025806528E+00
 cg2d: Sum(rhs),rhsMax =  -9.37547639523473E-08  9.24603037476154E+00
 cg2d: Sum(rhs),rhsMax =  -9.37974888870485E-08  9.24181932462259E+00
 cg2d: Sum(rhs),rhsMax =  -9.38402919814507E-08  9.23754533703139E+00
 cg2d: Sum(rhs),rhsMax =  -9.38843172093584E-08  9.23320698439808E+00
 cg2d: Sum(rhs),rhsMax =  -9.39290814017113E-08  9.22880321317793E+00
 cg2d: Sum(rhs),rhsMax =  -9.39739734917566E-08  9.22433335164241E+00
 cg2d: Sum(rhs),rhsMax =  -9.40200521881707E-08  9.21979710173837E+00
 cg2d: Sum(rhs),rhsMax =  -9.40667135296280E-08  9.21519452384442E+00
 cg2d: Sum(rhs),rhsMax =  -9.41140712029664E-08  9.21052602027441E+00
 cg2d: Sum(rhs),rhsMax =  -9.41621181027585E-08  9.20579231856880E+00
 cg2d: Sum(rhs),rhsMax =  -9.42108115964402E-08  9.20099445172383E+00
 cg2d: Sum(rhs),rhsMax =  -9.42603506359774E-08  9.19613373409314E+00
 cg2d: Sum(rhs),rhsMax =  -9.43106570616692E-08  9.19121172891709E+00
 cg2d: Sum(rhs),rhsMax =  -9.43619582471911E-08  9.18623021276131E+00
 cg2d: Sum(rhs),rhsMax =  -9.44129254776271E-08  9.18119115032627E+00
 cg2d: Sum(rhs),rhsMax =  -9.44648874678933E-08  9.17609666859133E+00
 EXTERNAL_FIELDS_LOAD, it=   3600450 : Reading new data, i0,i1=    8    9 (prev=    7    8 )
 DIC_FIELDS_LOAD, it=   3600450 : Reading new data, i0,i1=    8    9 (prev=    7    8 )
 cg2d: Sum(rhs),rhsMax =  -9.45180929079470E-08  9.17094900539886E+00
 cg2d: Sum(rhs),rhsMax =  -9.45713196642828E-08  9.16576037761048E+00
 cg2d: Sum(rhs),rhsMax =  -9.46249869571147E-08  9.16053907873528E+00
 cg2d: Sum(rhs),rhsMax =  -9.46787679367844E-08  9.15529303788953E+00
 cg2d: Sum(rhs),rhsMax =  -9.47327123412833E-08  9.15002961005962E+00
 cg2d: Sum(rhs),rhsMax =  -9.47873814993727E-08  9.14475542293395E+00
 cg2d: Sum(rhs),rhsMax =  -9.48415888046839E-08  9.13947626776025E+00
 cg2d: Sum(rhs),rhsMax =  -9.48963148061921E-08  9.13419703804716E+00
 cg2d: Sum(rhs),rhsMax =  -9.49505718494947E-08  9.12892171232682E+00
 cg2d: Sum(rhs),rhsMax =  -9.50055820680973E-08  9.12365335338700E+00
 cg2d: Sum(rhs),rhsMax =  -9.50602441207593E-08  9.11839411243203E+00
 cg2d: Sum(rhs),rhsMax =  -9.51149274897034E-08  9.11314523538299E+00
 cg2d: Sum(rhs),rhsMax =  -9.51689713701853E-08  9.10790707134369E+00
 cg2d: Sum(rhs),rhsMax =  -9.52241663298992E-08  9.10267908920085E+00
 cg2d: Sum(rhs),rhsMax =  -9.52785583763216E-08  9.09745990818067E+00
 cg2d: Sum(rhs),rhsMax =  -9.53332346398383E-08  9.09224734512777E+00
 cg2d: Sum(rhs),rhsMax =  -9.53879322196372E-08  9.08703847736888E+00
 cg2d: Sum(rhs),rhsMax =  -9.54423811094784E-08  9.08182972075513E+00
 cg2d: Sum(rhs),rhsMax =  -9.54974623823546E-08  9.07661692347198E+00
 cg2d: Sum(rhs),rhsMax =  -9.55527141854873E-08  9.07139547821490E+00
 cg2d: Sum(rhs),rhsMax =  -9.56078878289190E-08  9.06616045270155E+00
 cg2d: Sum(rhs),rhsMax =  -9.56632462134621E-08  9.06090673305150E+00
 cg2d: Sum(rhs),rhsMax =  -9.57190593453561E-08  9.05562917574046E+00
 cg2d: Sum(rhs),rhsMax =  -9.57753982788745E-08  9.05032276301453E+00
 cg2d: Sum(rhs),rhsMax =  -9.58323127520089E-08  9.04498274779792E+00
 cg2d: Sum(rhs),rhsMax =  -9.58890566948867E-08  9.03960479010611E+00
 cg2d: Sum(rhs),rhsMax =  -9.59469090844323E-08  9.03418508103277E+00
 cg2d: Sum(rhs),rhsMax =  -9.60046975251316E-08  9.02872044807494E+00
 cg2d: Sum(rhs),rhsMax =  -9.60634949365158E-08  9.02320843719522E+00
 cg2d: Sum(rhs),rhsMax =  -9.61234505325592E-08  9.01764736350553E+00
 cg2d: Sum(rhs),rhsMax =  -9.61829158541150E-08  9.01203632711249E+00
 cg2d: Sum(rhs),rhsMax =  -9.62436175200310E-08  9.00637519234014E+00
 cg2d: Sum(rhs),rhsMax =  -9.63047241953063E-08  9.00066454100738E+00
 cg2d: Sum(rhs),rhsMax =  -9.63663566722062E-08  8.99490560644289E+00
 cg2d: Sum(rhs),rhsMax =  -9.64286215321408E-08  8.98910019830229E+00
 cg2d: Sum(rhs),rhsMax =  -9.64914832479735E-08  8.98325060608421E+00
 cg2d: Sum(rhs),rhsMax =  -9.65549631359863E-08  8.97735949860674E+00
 cg2d: Sum(rhs),rhsMax =  -9.66191180395981E-08  8.97142982445055E+00
 cg2d: Sum(rhs),rhsMax =  -9.66832942594920E-08  8.96546471599943E+00
 cg2d: Sum(rhs),rhsMax =  -9.67482520763951E-08  8.95946740124540E+00
 cg2d: Sum(rhs),rhsMax =  -9.68132098932983E-08  8.95344112713886E+00
 cg2d: Sum(rhs),rhsMax =  -9.68790274669118E-08  8.94738909112794E+00
 cg2d: Sum(rhs),rhsMax =  -9.69447810916790E-08  8.94131438207753E+00
 cg2d: Sum(rhs),rhsMax =  -9.70111884157632E-08  8.93521991327319E+00
 cg2d: Sum(rhs),rhsMax =  -9.70773115227530E-08  8.92910833888471E+00
 cg2d: Sum(rhs),rhsMax =  -9.71445075492738E-08  8.92298199747039E+00
 cg2d: Sum(rhs),rhsMax =  -9.72113554098541E-08  8.91684290726808E+00
 cg2d: Sum(rhs),rhsMax =  -9.72787574937684E-08  8.91069264633776E+00
 cg2d: Sum(rhs),rhsMax =  -9.73459535202892E-08  8.90453228797114E+00
 cg2d: Sum(rhs),rhsMax =  -9.74135971887335E-08  8.89836249714105E+00
 cg2d: Sum(rhs),rhsMax =  -9.74817027099562E-08  8.89218368115518E+00
 cg2d: Sum(rhs),rhsMax =  -9.75496519117769E-08  8.88599608996445E+00
 cg2d: Sum(rhs),rhsMax =  -9.76179350686834E-08  8.87979980032782E+00
 cg2d: Sum(rhs),rhsMax =  -9.76860476953334E-08  8.87359466021019E+00
 cg2d: Sum(rhs),rhsMax =  -9.77549490244201E-08  8.86737992136571E+00
 cg2d: Sum(rhs),rhsMax =  -9.78237792992331E-08  8.86115449881272E+00
 cg2d: Sum(rhs),rhsMax =  -9.78925882577641E-08  8.85491714939279E+00
 cg2d: Sum(rhs),rhsMax =  -9.79620651264668E-08  8.84866650814923E+00
 cg2d: Sum(rhs),rhsMax =  -9.80318830556826E-08  8.84239908862083E+00
 cg2d: Sum(rhs),rhsMax =  -9.81016583523342E-08  8.83611205511795E+00
 EXTERNAL_FIELDS_LOAD, it=   3600510 : Reading new data, i0,i1=    9   10 (prev=    8    9 )
 DIC_FIELDS_LOAD, it=   3600510 : Reading new data, i0,i1=    9   10 (prev=    8    9 )
 cg2d: Sum(rhs),rhsMax =  -9.81721868242857E-08  8.82980306034887E+00
 cg2d: Sum(rhs),rhsMax =  -9.82427721396562E-08  8.82347164349139E+00
 cg2d: Sum(rhs),rhsMax =  -9.83135990395567E-08  8.81711735596894E+00
 cg2d: Sum(rhs),rhsMax =  -9.83851720093298E-08  8.81074020360017E+00
 cg2d: Sum(rhs),rhsMax =  -9.84564962891454E-08  8.80434063629974E+00
 cg2d: Sum(rhs),rhsMax =  -9.85286376931072E-08  8.79791959804717E+00
 cg2d: Sum(rhs),rhsMax =  -9.86011414738641E-08  8.79147850051498E+00
 cg2d: Sum(rhs),rhsMax =  -9.86734960406466E-08  8.78501923806664E+00
 cg2d: Sum(rhs),rhsMax =  -9.87464900958912E-08  8.77854412431977E+00
 cg2d: Sum(rhs),rhsMax =  -9.88197470519481E-08  8.77205585109022E+00
 cg2d: Sum(rhs),rhsMax =  -9.88934729662105E-08  8.76555740298602E+00
 cg2d: Sum(rhs),rhsMax =  -9.89669146633787E-08  8.75905198910442E+00
 cg2d: Sum(rhs),rhsMax =  -9.90407258427695E-08  8.75254295465281E+00
 cg2d: Sum(rhs),rhsMax =  -9.91145014950234E-08  8.74603368964057E+00
 cg2d: Sum(rhs),rhsMax =  -9.91886466295000E-08  8.73952755244439E+00
 cg2d: Sum(rhs),rhsMax =  -9.92623157003436E-08  8.73302782624689E+00
 cg2d: Sum(rhs),rhsMax =  -9.93363400425551E-08  8.72653766294564E+00
 cg2d: Sum(rhs),rhsMax =  -9.94104141227581E-08  8.72006002219781E+00
 cg2d: Sum(rhs),rhsMax =  -9.94844668866790E-08  8.71359759621992E+00
 cg2d: Sum(rhs),rhsMax =  -9.95583775420528E-08  8.70715278372291E+00
 cg2d: Sum(rhs),rhsMax =  -9.96322597757171E-08  8.70072771032166E+00
 cg2d: Sum(rhs),rhsMax =  -9.97059714791249E-08  8.69432422374462E+00
 cg2d: Sum(rhs),rhsMax =  -9.97792923840279E-08  8.68794392220557E+00
 cg2d: Sum(rhs),rhsMax =  -9.98527127649140E-08  8.68159287495532E+00
 cg2d: Sum(rhs),rhsMax =  -9.99256144496030E-08  8.67527594836007E+00
 cg2d: Sum(rhs),rhsMax =  -9.99983740257449E-08  8.66899648662334E+00
 cg2d: Sum(rhs),rhsMax =  -1.00070764119664E-07  8.66275674813775E+00
 cg2d: Sum(rhs),rhsMax =  -1.00142791836788E-07  8.65655808426570E+00
 cg2d: Sum(rhs),rhsMax =  -1.00214123222031E-07  8.65040095427649E+00
 cg2d: Sum(rhs),rhsMax =  -1.00285419080137E-07  8.64428511771589E+00
 cg2d: Sum(rhs),rhsMax =  -1.00356203347474E-07  8.63820779072895E+00
 cg2d: Sum(rhs),rhsMax =  -1.00426881033400E-07  8.63216610266613E+00
 cg2d: Sum(rhs),rhsMax =  -1.00497182131676E-07  8.62615664857018E+00
 cg2d: Sum(rhs),rhsMax =  -1.00566929006618E-07  8.62017549344574E+00
 cg2d: Sum(rhs),rhsMax =  -1.00636839306389E-07  8.61421824973427E+00
 cg2d: Sum(rhs),rhsMax =  -1.00706515127058E-07  8.60828014305759E+00
 cg2d: Sum(rhs),rhsMax =  -1.00776318845419E-07  8.60235619466164E+00
 cg2d: Sum(rhs),rhsMax =  -1.00845916506387E-07  8.59644141396147E+00
 cg2d: Sum(rhs),rhsMax =  -1.00915485745645E-07  8.59053104903554E+00
 cg2d: Sum(rhs),rhsMax =  -1.00985261042297E-07  8.58462072248315E+00
 cg2d: Sum(rhs),rhsMax =  -1.01055491086299E-07  8.57870663714626E+00
 cg2d: Sum(rhs),rhsMax =  -1.01125422702353E-07  8.57278566865890E+00
 cg2d: Sum(rhs),rhsMax =  -1.01195716695202E-07  8.56685532083521E+00
 cg2d: Sum(rhs),rhsMax =  -1.01266216745444E-07  8.56091374139585E+00
 cg2d: Sum(rhs),rhsMax =  -1.01337192859319E-07  8.55495975914983E+00
 cg2d: Sum(rhs),rhsMax =  -1.01408346608878E-07  8.54899275863313E+00
 cg2d: Sum(rhs),rhsMax =  -1.01479535885574E-07  8.54301265247851E+00
 cg2d: Sum(rhs),rhsMax =  -1.01551435705005E-07  8.53701978569626E+00
 cg2d: Sum(rhs),rhsMax =  -1.01622724457684E-07  8.53101490472480E+00
 cg2d: Sum(rhs),rhsMax =  -1.01695292187287E-07  8.52499919193590E+00
 cg2d: Sum(rhs),rhsMax =  -1.01767554383514E-07  8.51897431341724E+00
 cg2d: Sum(rhs),rhsMax =  -1.01840242905382E-07  8.51294235247767E+00
 cg2d: Sum(rhs),rhsMax =  -1.01912846162122E-07  8.50690569200869E+00
 cg2d: Sum(rhs),rhsMax =  -1.01985413891725E-07  8.50087005576702E+00
 cg2d: Sum(rhs),rhsMax =  -1.02058450579534E-07  8.49484015017416E+00
 cg2d: Sum(rhs),rhsMax =  -1.02131188839394E-07  8.48882063673028E+00
 cg2d: Sum(rhs),rhsMax =  -1.02203856044980E-07  8.48281607441673E+00
 cg2d: Sum(rhs),rhsMax =  -1.02276672464541E-07  8.47683086082370E+00
 cg2d: Sum(rhs),rhsMax =  -1.02349595465512E-07  8.47086915096995E+00
 cg2d: Sum(rhs),rhsMax =  -1.02421360281824E-07  8.46493476809303E+00
 EXTERNAL_FIELDS_LOAD, it=   3600570 : Reading new data, i0,i1=   10   11 (prev=    9   10 )
 DIC_FIELDS_LOAD, it=   3600570 : Reading new data, i0,i1=   10   11 (prev=    9   10 )
 cg2d: Sum(rhs),rhsMax =  -1.02493515896640E-07  8.45903109783263E+00
 cg2d: Sum(rhs),rhsMax =  -1.02564975179575E-07  8.45319648993583E+00
 cg2d: Sum(rhs),rhsMax =  -1.02634501786270E-07  8.44745634270964E+00
 cg2d: Sum(rhs),rhsMax =  -1.02703893389844E-07  8.44183524325516E+00
 cg2d: Sum(rhs),rhsMax =  -1.02770819410125E-07  8.43635626330932E+00
 cg2d: Sum(rhs),rhsMax =  -1.02836231974379E-07  8.43104036727980E+00
 cg2d: Sum(rhs),rhsMax =  -1.02899214482477E-07  8.42590597581903E+00
 cg2d: Sum(rhs),rhsMax =  -1.02960150627496E-07  8.42096861540595E+00
 cg2d: Sum(rhs),rhsMax =  -1.03018727770632E-07  8.41624063283881E+00
 cg2d: Sum(rhs),rhsMax =  -1.03074462742825E-07  8.41173099284368E+00
 cg2d: Sum(rhs),rhsMax =  -1.03127582917750E-07  8.40744522364360E+00
 cg2d: Sum(rhs),rhsMax =  -1.03177704602331E-07  8.40338548638234E+00
 cg2d: Sum(rhs),rhsMax =  -1.03225289649345E-07  8.39955071057647E+00
 cg2d: Sum(rhs),rhsMax =  -1.03270444640202E-07  8.39593686353065E+00
 cg2d: Sum(rhs),rhsMax =  -1.03312800092681E-07  8.39253726007720E+00
 cg2d: Sum(rhs),rhsMax =  -1.03352554958747E-07  8.38934286490718E+00
 cg2d: Sum(rhs),rhsMax =  -1.03389886874083E-07  8.38634267692018E+00
 cg2d: Sum(rhs),rhsMax =  -1.03425186637196E-07  8.38352418466840E+00
 cg2d: Sum(rhs),rhsMax =  -1.03458575040349E-07  8.38087384792736E+00
 cg2d: Sum(rhs),rhsMax =  -1.03489654179612E-07  8.37837764295235E+00
 cg2d: Sum(rhs),rhsMax =  -1.03519347760539E-07  8.37602165023152E+00
 cg2d: Sum(rhs),rhsMax =  -1.03547364460610E-07  8.37379265495454E+00
 cg2d: Sum(rhs),rhsMax =  -1.03573896126363E-07  8.37167859305842E+00
 cg2d: Sum(rhs),rhsMax =  -1.03599155920620E-07  8.36966841617237E+00
 cg2d: Sum(rhs),rhsMax =  -1.03623357006200E-07  8.36775262363169E+00
 cg2d: Sum(rhs),rhsMax =  -1.03646584648232E-07  8.36592322530019E+00
 cg2d: Sum(rhs),rhsMax =  -1.03668426731929E-07  8.36417370361670E+00
 cg2d: Sum(rhs),rhsMax =  -1.03689806962848E-07  8.36249893566327E+00
 cg2d: Sum(rhs),rhsMax =  -1.03710164012227E-07  8.36089512198643E+00
 cg2d: Sum(rhs),rhsMax =  -1.03729064448999E-07  8.35935972193128E+00
 cg2d: Sum(rhs),rhsMax =  -1.03747986202052E-07  8.35789132052859E+00
 cg2d: Sum(rhs),rhsMax =  -1.03765373182796E-07  8.35648953984663E+00
 cg2d: Sum(rhs),rhsMax =  -1.03782369365035E-07  8.35515503666620E+00
 cg2d: Sum(rhs),rhsMax =  -1.03798733164240E-07  8.35388959337713E+00
 cg2d: Sum(rhs),rhsMax =  -1.03813491136862E-07  8.35269612989214E+00
 cg2d: Sum(rhs),rhsMax =  -1.03827638042731E-07  8.35157865319166E+00
 cg2d: Sum(rhs),rhsMax =  -1.03841280463257E-07  8.35054220321588E+00
 cg2d: Sum(rhs),rhsMax =  -1.03853331268056E-07  8.34959282244478E+00
 cg2d: Sum(rhs),rhsMax =  -1.03864024936229E-07  8.34873757212784E+00
 cg2d: Sum(rhs),rhsMax =  -1.03873794898846E-07  8.34798443944571E+00
 cg2d: Sum(rhs),rhsMax =  -1.03881951929452E-07  8.34734205444848E+00
 cg2d: Sum(rhs),rhsMax =  -1.03888730507151E-07  8.34681927427749E+00
 cg2d: Sum(rhs),rhsMax =  -1.03893782466002E-07  8.34642479662444E+00
 cg2d: Sum(rhs),rhsMax =  -1.03896695691219E-07  8.34616690162161E+00
 cg2d: Sum(rhs),rhsMax =  -1.03898251779810E-07  8.34605328416144E+00
 cg2d: Sum(rhs),rhsMax =  -1.03897747294468E-07  8.34609086201575E+00
 cg2d: Sum(rhs),rhsMax =  -1.03895416714295E-07  8.34628560159372E+00
 cg2d: Sum(rhs),rhsMax =  -1.03891132141598E-07  8.34664238294981E+00
 cg2d: Sum(rhs),rhsMax =  -1.03884730151549E-07  8.34716488141953E+00
 cg2d: Sum(rhs),rhsMax =  -1.03876232060429E-07  8.34785544920597E+00
 cg2d: Sum(rhs),rhsMax =  -1.03865339440290E-07  8.34871504733891E+00
 cg2d: Sum(rhs),rhsMax =  -1.03852393351644E-07  8.34974320296400E+00
 cg2d: Sum(rhs),rhsMax =  -1.03837578535604E-07  8.35093803633076E+00
 cg2d: Sum(rhs),rhsMax =  -1.03820866570459E-07  8.35229628921908E+00
 cg2d: Sum(rhs),rhsMax =  -1.03801575335183E-07  8.35381348895399E+00
 cg2d: Sum(rhs),rhsMax =  -1.03780770643880E-07  8.35548405560547E+00
 cg2d: Sum(rhs),rhsMax =  -1.03758168279455E-07  8.35730145035772E+00
 cg2d: Sum(rhs),rhsMax =  -1.03734052459004E-07  8.35925834161856E+00
 cg2d: Sum(rhs),rhsMax =  -1.03707641585515E-07  8.36134677020027E+00
 cg2d: Sum(rhs),rhsMax =  -1.03680264373907E-07  8.36355833544679E+00
 EXTERNAL_FIELDS_LOAD, it=   3600630 : Reading new data, i0,i1=   11   12 (prev=   10   11 )
 DIC_FIELDS_LOAD, it=   3600630 : Reading new data, i0,i1=   11   12 (prev=   10   11 )
 cg2d: Sum(rhs),rhsMax =  -1.03651167648877E-07  8.36588437297216E+00
 cg2d: Sum(rhs),rhsMax =  -1.03620983793462E-07  8.36829873825493E+00
 cg2d: Sum(rhs),rhsMax =  -1.03590167555012E-07  8.37078098256463E+00
 cg2d: Sum(rhs),rhsMax =  -1.03558832620365E-07  8.37331076990736E+00
 cg2d: Sum(rhs),rhsMax =  -1.03526986094948E-07  8.37586828475342E+00
 cg2d: Sum(rhs),rhsMax =  -1.03494969039275E-07  8.37843651347270E+00
 cg2d: Sum(rhs),rhsMax =  -1.03462959089029E-07  8.38100058596186E+00
 cg2d: Sum(rhs),rhsMax =  -1.03431759157502E-07  8.38354800119352E+00
 cg2d: Sum(rhs),rhsMax =  -1.03400431328282E-07  8.38606907281455E+00
 cg2d: Sum(rhs),rhsMax =  -1.03369536930131E-07  8.38855705740912E+00
 cg2d: Sum(rhs),rhsMax =  -1.03339182544460E-07  8.39100818777902E+00
 cg2d: Sum(rhs),rhsMax =  -1.03309091059600E-07  8.39342162927294E+00
 cg2d: Sum(rhs),rhsMax =  -1.03279326424399E-07  8.39579937673915E+00
 cg2d: Sum(rhs),rhsMax =  -1.03250158645096E-07  8.39814606298476E+00
 cg2d: Sum(rhs),rhsMax =  -1.03221587721691E-07  8.40046867037939E+00
 cg2d: Sum(rhs),rhsMax =  -1.03192640210636E-07  8.40277617859981E+00
 cg2d: Sum(rhs),rhsMax =  -1.03164317977189E-07  8.40507915533000E+00
 cg2d: Sum(rhs),rhsMax =  -1.03135583628955E-07  8.40738929078001E+00
 cg2d: Sum(rhs),rhsMax =  -1.03106465587643E-07  8.40971893982490E+00
 cg2d: Sum(rhs),rhsMax =  -1.03077603341717E-07  8.41208069021930E+00
 cg2d: Sum(rhs),rhsMax =  -1.03047760546815E-07  8.41448664736628E+00
 cg2d: Sum(rhs),rhsMax =  -1.03017328001442E-07  8.41694808963461E+00
 cg2d: Sum(rhs),rhsMax =  -1.02985850958248E-07  8.41947641344255E+00
 cg2d: Sum(rhs),rhsMax =  -1.02953762848301E-07  8.42209465677943E+00
 cg2d: Sum(rhs),rhsMax =  -1.02920779454507E-07  8.42481840011152E+00
 cg2d: Sum(rhs),rhsMax =  -1.02885756803062E-07  8.42766143831664E+00
 cg2d: Sum(rhs),rhsMax =  -1.02849760708068E-07  8.43063562227923E+00
 cg2d: Sum(rhs),rhsMax =  -1.02811505087175E-07  8.43375048923612E+00
 cg2d: Sum(rhs),rhsMax =  -1.02771743115682E-07  8.43701312183894E+00
 cg2d: Sum(rhs),rhsMax =  -1.02730268736195E-07  8.44042805498092E+00
 cg2d: Sum(rhs),rhsMax =  -1.02686364300553E-07  8.44399728026233E+00
 cg2d: Sum(rhs),rhsMax =  -1.02641237731405E-07  8.44772028674299E+00
 cg2d: Sum(rhs),rhsMax =  -1.02594057693750E-07  8.45159419183708E+00
 cg2d: Sum(rhs),rhsMax =  -1.02545079982974E-07  8.45561389463918E+00
 cg2d: Sum(rhs),rhsMax =  -1.02494418285914E-07  8.45977229544668E+00
 cg2d: Sum(rhs),rhsMax =  -1.02442626825905E-07  8.46406043486096E+00
 cg2d: Sum(rhs),rhsMax =  -1.02389186906748E-07  8.46846786249842E+00
 cg2d: Sum(rhs),rhsMax =  -1.02334411167249E-07  8.47298294092153E+00
 cg2d: Sum(rhs),rhsMax =  -1.02278569613645E-07  8.47759310010859E+00
 cg2d: Sum(rhs),rhsMax =  -1.02221783038203E-07  8.48228511495217E+00
 cg2d: Sum(rhs),rhsMax =  -1.02164435134000E-07  8.48704540520819E+00
 cg2d: Sum(rhs),rhsMax =  -1.02106639587873E-07  8.49186038102640E+00
 cg2d: Sum(rhs),rhsMax =  -1.02048161920720E-07  8.49671683330553E+00
 cg2d: Sum(rhs),rhsMax =  -1.01989222400789E-07  8.50160229731839E+00
 cg2d: Sum(rhs),rhsMax =  -1.01930119456028E-07  8.50650541756349E+00
 cg2d: Sum(rhs),rhsMax =  -1.01871734159431E-07  8.51141606286167E+00
 cg2d: Sum(rhs),rhsMax =  -1.01813114383731E-07  8.51632550458549E+00
 cg2d: Sum(rhs),rhsMax =  -1.01754352499484E-07  8.52122658728227E+00
 cg2d: Sum(rhs),rhsMax =  -1.01695938781177E-07  8.52611387363114E+00
 cg2d: Sum(rhs),rhsMax =  -1.01637908755947E-07  8.53098375482528E+00
 cg2d: Sum(rhs),rhsMax =  -1.01580091893538E-07  8.53583450654913E+00
 cg2d: Sum(rhs),rhsMax =  -1.01522516615660E-07  8.54066629803099E+00
 cg2d: Sum(rhs),rhsMax =  -1.01465325030858E-07  8.54548114840508E+00
 cg2d: Sum(rhs),rhsMax =  -1.01408510033707E-07  8.55028281355603E+00
 cg2d: Sum(rhs),rhsMax =  -1.01351844250530E-07  8.55507663782142E+00
 cg2d: Sum(rhs),rhsMax =  -1.01294901355686E-07  8.55986938569464E+00
 cg2d: Sum(rhs),rhsMax =  -1.01238242677937E-07  8.56466907941720E+00
 cg2d: Sum(rhs),rhsMax =  -1.01181711897880E-07  8.56948481849350E+00
 cg2d: Sum(rhs),rhsMax =  -1.01124427942523E-07  8.57432655386490E+00
 cg2d: Sum(rhs),rhsMax =  -1.01066994773191E-07  8.57920482306538E+00
 EXTERNAL_FIELDS_LOAD, it=   3600690 : Reading new data, i0,i1=   12    1 (prev=   11   12 )
 DIC_FIELDS_LOAD, it=   3600690 : Reading new data, i0,i1=   12    1 (prev=   11   12 )
 cg2d: Sum(rhs),rhsMax =  -1.01009099751082E-07  8.58413045456863E+00
 cg2d: Sum(rhs),rhsMax =  -1.00950970249869E-07  8.58908772075261E+00
 cg2d: Sum(rhs),rhsMax =  -1.00892201260194E-07  8.59407113784658E+00
 cg2d: Sum(rhs),rhsMax =  -1.00833979388426E-07  8.59907533504329E+00
 cg2d: Sum(rhs),rhsMax =  -1.00775366718153E-07  8.60409527812640E+00
 cg2d: Sum(rhs),rhsMax =  -1.00716533779632E-07  8.60912639608676E+00
 cg2d: Sum(rhs),rhsMax =  -1.00657807422522E-07  8.61416467727663E+00
 cg2d: Sum(rhs),rhsMax =  -1.00599194752249E-07  8.61920670304104E+00
 cg2d: Sum(rhs),rhsMax =  -1.00540219705181E-07  8.62424959025954E+00
 cg2d: Sum(rhs),rhsMax =  -1.00481713616318E-07  8.62929084710763E+00
 cg2d: Sum(rhs),rhsMax =  -1.00423278581729E-07  8.63432823431656E+00
 cg2d: Sum(rhs),rhsMax =  -1.00365085131671E-07  8.63935967110789E+00
 cg2d: Sum(rhs),rhsMax =  -1.00306984052168E-07  8.64438326330631E+00
 cg2d: Sum(rhs),rhsMax =  -1.00248698231553E-07  8.64939736363611E+00
 cg2d: Sum(rhs),rhsMax =  -1.00191144269957E-07  8.65440069908248E+00
 cg2d: Sum(rhs),rhsMax =  -1.00133568992078E-07  8.65939260929048E+00
 cg2d: Sum(rhs),rhsMax =  -1.00076100295610E-07  8.66437312037654E+00
 cg2d: Sum(rhs),rhsMax =  -1.00019036608501E-07  8.66934290835576E+00
 cg2d: Sum(rhs),rhsMax =  -9.99617597585711E-08  8.67430225124478E+00
 cg2d: Sum(rhs),rhsMax =  -9.99047102823170E-08  8.67925494682890E+00
 cg2d: Sum(rhs),rhsMax =  -9.98482363456787E-08  8.68420608713978E+00
 cg2d: Sum(rhs),rhsMax =  -9.97913716105359E-08  8.68916081980566E+00
 cg2d: Sum(rhs),rhsMax =  -9.97343434505638E-08  8.69412416784580E+00
 cg2d: Sum(rhs),rhsMax =  -9.96773295014464E-08  8.69910085245627E+00
 cg2d: Sum(rhs),rhsMax =  -9.96202871306195E-08  8.70409517445086E+00
 cg2d: Sum(rhs),rhsMax =  -9.95629250155616E-08  8.70911095741398E+00
 cg2d: Sum(rhs),rhsMax =  -9.95059110664442E-08  8.71415148969223E+00
 cg2d: Sum(rhs),rhsMax =  -9.94480160443345E-08  8.71921930590513E+00
 cg2d: Sum(rhs),rhsMax =  -9.93902702361993E-08  8.72431607432102E+00
 cg2d: Sum(rhs),rhsMax =  -9.93317215147727E-08  8.72944261226047E+00
 cg2d: Sum(rhs),rhsMax =  -9.92735280647139E-08  8.73459893266904E+00
 cg2d: Sum(rhs),rhsMax =  -9.92147448641845E-08  8.73978430818157E+00
 cg2d: Sum(rhs),rhsMax =  -9.91560966667748E-08  8.74499735837366E+00
 cg2d: Sum(rhs),rhsMax =  -9.90966526615011E-08  8.75023614706347E+00
 cg2d: Sum(rhs),rhsMax =  -9.90366970654577E-08  8.75549829188909E+00
 cg2d: Sum(rhs),rhsMax =  -9.89772743764661E-08  8.76078107848702E+00
 cg2d: Sum(rhs),rhsMax =  -9.89177024735000E-08  8.76608155580086E+00
 cg2d: Sum(rhs),rhsMax =  -9.88579742511320E-08  8.77139664107964E+00
 cg2d: Sum(rhs),rhsMax =  -9.87977060162848E-08  8.77672320795606E+00
 cg2d: Sum(rhs),rhsMax =  -9.87382264838743E-08  8.78205816635757E+00
(PID.TID 0000.0001) Did not write pickup because writePickupAtEnd = FALSE
 DIC_SURFFORCING_INIT, it=   3600000 : Reading new data, i0,i1=   12    1
 QQ: pCO2 approximation method
 QQ first guess pH 8.2869849781645275,  7.129213793781922,  34.1535348423009,  2.0282,  5.43799999999999991E-4,  8.08490416966378689E-3,  2.3086000000000002
(PID.TID 0000.0001) // =======================================================
(PID.TID 0000.0001) // Model current state
(PID.TID 0000.0001) // =======================================================
(PID.TID 0000.0001) 
 EXTERNAL_FIELDS_LOAD, it=   3600000 : Reading new data, i0,i1=   12    1 (prev=   12    0 )
 DIC_FIELDS_LOAD, it=   3600000 : Reading new data, i0,i1=   12    1 (prev=   12    0 )
 cg2d: Sum(rhs),rhsMax =  -9.92433868418630E-08  8.73439671821315E+00
 cg2d: Sum(rhs),rhsMax =  -9.91844260056496E-08  8.73957958587058E+00
 cg2d: Sum(rhs),rhsMax =  -9.91252449011881E-08  8.74478969091806E+00
 cg2d: Sum(rhs),rhsMax =  -9.90665185440776E-08  8.75002495477880E+00
 cg2d: Sum(rhs),rhsMax =  -9.90068542705558E-08  8.75528284057604E+00
 cg2d: Sum(rhs),rhsMax =  -9.89473534218632E-08  8.76056047500076E+00
 cg2d: Sum(rhs),rhsMax =  -9.88878241514612E-08  8.76585475900637E+00
 cg2d: Sum(rhs),rhsMax =  -9.88279893476829E-08  8.77116249138180E+00
 cg2d: Sum(rhs),rhsMax =  -9.87682469144602E-08  8.77648047471154E+00
 cg2d: Sum(rhs),rhsMax =  -9.87087602766223E-08  8.78180560756084E+00
 cg2d: Sum(rhs),rhsMax =  -9.86489112619893E-08  8.78713494778165E+00
 cg2d: Sum(rhs),rhsMax =  -9.85891404070571E-08  8.79246575399440E+00
 cg2d: Sum(rhs),rhsMax =  -9.85293340249882E-08  8.79779549299699E+00
 cg2d: Sum(rhs),rhsMax =  -9.84700747608258E-08  8.80312181092759E+00
 cg2d: Sum(rhs),rhsMax =  -9.84108581292276E-08  8.80844249631459E+00
 cg2d: Sum(rhs),rhsMax =  -9.83516486030567E-08  8.81375547068360E+00
 cg2d: Sum(rhs),rhsMax =  -9.82926522397065E-08  8.81905885446822E+00
 cg2d: Sum(rhs),rhsMax =  -9.82337553523394E-08  8.82435106608147E+00
 cg2d: Sum(rhs),rhsMax =  -9.81751568929212E-08  8.82963093738125E+00
 cg2d: Sum(rhs),rhsMax =  -9.81166650149135E-08  8.83489782452132E+00
 cg2d: Sum(rhs),rhsMax =  -9.80585213028462E-08  8.84015168145881E+00
 cg2d: Sum(rhs),rhsMax =  -9.80007470730015E-08  8.84539306572338E+00
 cg2d: Sum(rhs),rhsMax =  -9.79429586323022E-08  8.85062306296846E+00
 cg2d: Sum(rhs),rhsMax =  -9.78853904598509E-08  8.85584316140559E+00
 cg2d: Sum(rhs),rhsMax =  -9.78280425556477E-08  8.86105508303604E+00
 cg2d: Sum(rhs),rhsMax =  -9.77709291305473E-08  8.86626061391844E+00
 cg2d: Sum(rhs),rhsMax =  -9.77132472712583E-08  8.87146147123075E+00
 cg2d: Sum(rhs),rhsMax =  -9.76563327981239E-08  8.87665923110881E+00
 cg2d: Sum(rhs),rhsMax =  -9.75990843699037E-08  8.88185530584736E+00
 cg2d: Sum(rhs),rhsMax =  -9.75420704207863E-08  8.88705095973601E+00
 EXTERNAL_FIELDS_LOAD, it=   3600030 : Reading new data, i0,i1=    1    2 (prev=   12    1 )
 DIC_FIELDS_LOAD, it=   3600030 : Reading new data, i0,i1=    1    2 (prev=   12    1 )
 cg2d: Sum(rhs),rhsMax =  -9.74853406887632E-08  8.89224735691429E+00
 cg2d: Sum(rhs),rhsMax =  -9.74287814869967E-08  8.89742706375180E+00
 cg2d: Sum(rhs),rhsMax =  -9.73723857100595E-08  8.90258000132907E+00
 cg2d: Sum(rhs),rhsMax =  -9.73164659967551E-08  8.90769672951691E+00
 cg2d: Sum(rhs),rhsMax =  -9.72612284044772E-08  8.91276878246959E+00
 cg2d: Sum(rhs),rhsMax =  -9.72070637317302E-08  8.91778889429735E+00
 cg2d: Sum(rhs),rhsMax =  -9.71530482729577E-08  8.92275113682099E+00
 cg2d: Sum(rhs),rhsMax =  -9.70993241367069E-08  8.92765100404361E+00
 cg2d: Sum(rhs),rhsMax =  -9.70471916161841E-08  8.93248545016401E+00
 cg2d: Sum(rhs),rhsMax =  -9.69955280538670E-08  8.93725287491615E+00
 cg2d: Sum(rhs),rhsMax =  -9.69441273923621E-08  8.94195305183593E+00
 cg2d: Sum(rhs),rhsMax =  -9.68941833434656E-08  8.94658701582531E+00
 cg2d: Sum(rhs),rhsMax =  -9.68450208915783E-08  8.95115692214719E+00
 cg2d: Sum(rhs),rhsMax =  -9.67962705544778E-08  8.95566589123099E+00
 cg2d: Sum(rhs),rhsMax =  -9.67482165492584E-08  8.96011786358850E+00
 cg2d: Sum(rhs),rhsMax =  -9.67008020325011E-08  8.96451747891563E+00
 cg2d: Sum(rhs),rhsMax =  -9.66539346336504E-08  8.96886998187158E+00
 cg2d: Sum(rhs),rhsMax =  -9.66078843589457E-08  8.97318115409823E+00
 cg2d: Sum(rhs),rhsMax =  -9.65621254067628E-08  8.97745726495199E+00
 cg2d: Sum(rhs),rhsMax =  -9.65159685506478E-08  8.98170502198163E+00
 cg2d: Sum(rhs),rhsMax =  -9.64709272466280E-08  8.98593151889555E+00
 cg2d: Sum(rhs),rhsMax =  -9.64258006774799E-08  8.99014423145949E+00
 cg2d: Sum(rhs),rhsMax =  -9.63806954246138E-08  8.99435085408351E+00
 cg2d: Sum(rhs),rhsMax =  -9.63354978011921E-08  8.99855914272681E+00
 cg2d: Sum(rhs),rhsMax =  -9.62904493917449E-08  9.00277662786875E+00
 cg2d: Sum(rhs),rhsMax =  -9.62449746566563E-08  9.00700998220796E+00
 cg2d: Sum(rhs),rhsMax =  -9.61997557169525E-08  9.01126574761483E+00
 cg2d: Sum(rhs),rhsMax =  -9.61540180810516E-08  9.01555039729210E+00
 cg2d: Sum(rhs),rhsMax =  -9.61077120109621E-08  9.01986971435378E+00
 cg2d: Sum(rhs),rhsMax =  -9.60613775191632E-08  9.02422880815445E+00
 cg2d: Sum(rhs),rhsMax =  -9.60143182737738E-08  9.02863205182447E+00
 cg2d: Sum(rhs),rhsMax =  -9.59668398081703E-08  9.03308295193821E+00
 cg2d: Sum(rhs),rhsMax =  -9.59189492277801E-08  9.03758400719746E+00
 cg2d: Sum(rhs),rhsMax =  -9.58706323217484E-08  9.04213663854453E+00
 cg2d: Sum(rhs),rhsMax =  -9.58215622404168E-08  9.04674109185253E+00
 cg2d: Sum(rhs),rhsMax =  -9.57721724148541E-08  9.05139640217902E+00
 cg2d: Sum(rhs),rhsMax =  -9.57223775799321E-08  9.05610040614876E+00
 cg2d: Sum(rhs),rhsMax =  -9.56718224642827E-08  9.06084979109159E+00
 cg2d: Sum(rhs),rhsMax =  -9.56211039238042E-08  9.06564017672268E+00
 cg2d: Sum(rhs),rhsMax =  -9.55700798499493E-08  9.07046622792088E+00
 cg2d: Sum(rhs),rhsMax =  -9.55189918272481E-08  9.07532179655311E+00
 cg2d: Sum(rhs),rhsMax =  -9.54672145780933E-08  9.08020008054443E+00
 cg2d: Sum(rhs),rhsMax =  -9.54156860188959E-08  9.08509379067778E+00
 cg2d: Sum(rhs),rhsMax =  -9.53640864054250E-08  9.08999532389517E+00
 cg2d: Sum(rhs),rhsMax =  -9.53120391500306E-08  9.09489685062687E+00
 cg2d: Sum(rhs),rhsMax =  -9.52604963799786E-08  9.09979078670731E+00
 cg2d: Sum(rhs),rhsMax =  -9.52091738781746E-08  9.10466952325132E+00
 cg2d: Sum(rhs),rhsMax =  -9.51581995423112E-08  9.10952586151125E+00
 cg2d: Sum(rhs),rhsMax =  -9.51075378452515E-08  9.11435305322486E+00
 cg2d: Sum(rhs),rhsMax =  -9.50568974644739E-08  9.11914489544444E+00
 cg2d: Sum(rhs),rhsMax =  -9.50070173644235E-08  9.12389583482653E+00
 cg2d: Sum(rhs),rhsMax =  -9.49582670273230E-08  9.12860106773695E+00
 cg2d: Sum(rhs),rhsMax =  -9.49094669522310E-08  9.13325671324743E+00
 cg2d: Sum(rhs),rhsMax =  -9.48612637330370E-08  9.13785989332165E+00
 cg2d: Sum(rhs),rhsMax =  -9.48139060596986E-08  9.14240888612431E+00
 cg2d: Sum(rhs),rhsMax =  -9.47671381368309E-08  9.14690322805975E+00
 cg2d: Sum(rhs),rhsMax =  -9.47210025969980E-08  9.15134376400067E+00
 cg2d: Sum(rhs),rhsMax =  -9.46753857533622E-08  9.15573262291172E+00
 cg2d: Sum(rhs),rhsMax =  -9.46305078741716E-08  9.16007311317651E+00
 cg2d: Sum(rhs),rhsMax =  -9.45855020972886E-08  9.16436954661381E+00
 EXTERNAL_FIELDS_LOAD, it=   3600090 : Reading new data, i0,i1=    2    3 (prev=    1    2 )
 DIC_FIELDS_LOAD, it=   3600090 : Reading new data, i0,i1=    2    3 (prev=    1    2 )
 cg2d: Sum(rhs),rhsMax =  -9.45416047670733E-08  9.16862700792054E+00
 cg2d: Sum(rhs),rhsMax =  -9.44977784911316E-08  9.17286965792043E+00
 cg2d: Sum(rhs),rhsMax =  -9.44538882663437E-08  9.17711460232796E+00
 cg2d: Sum(rhs),rhsMax =  -9.44097777733077E-08  9.18137827264839E+00
 cg2d: Sum(rhs),rhsMax =  -9.43655606988614E-08  9.18567586102450E+00
 cg2d: Sum(rhs),rhsMax =  -9.43208533499273E-08  9.19002086507332E+00
 cg2d: Sum(rhs),rhsMax =  -9.42755065125311E-08  9.19442473147613E+00
 cg2d: Sum(rhs),rhsMax =  -9.42294988703907E-08  9.19889660310093E+00
 cg2d: Sum(rhs),rhsMax =  -9.41831217460276E-08  9.20344317156002E+00
 cg2d: Sum(rhs),rhsMax =  -9.41357711781166E-08  9.20806863385625E+00
 cg2d: Sum(rhs),rhsMax =  -9.40875679589226E-08  9.21277472508850E+00
 cg2d: Sum(rhs),rhsMax =  -9.40387323566938E-08  9.21756082935263E+00
 cg2d: Sum(rhs),rhsMax =  -9.39891506845925E-08  9.22242415169496E+00
 cg2d: Sum(rhs),rhsMax =  -9.39387589937724E-08  9.22735992735964E+00
 cg2d: Sum(rhs),rhsMax =  -9.38874578082505E-08  9.23236166048178E+00
 cg2d: Sum(rhs),rhsMax =  -9.38360713576003E-08  9.23742136926884E+00
 cg2d: Sum(rhs),rhsMax =  -9.37847204340869E-08  9.24252982829311E+00
 cg2d: Sum(rhs),rhsMax =  -9.37326518624104E-08  9.24767682825910E+00
 cg2d: Sum(rhs),rhsMax =  -9.36799651185538E-08  9.25285135651627E+00
 cg2d: Sum(rhs),rhsMax =  -9.36278468088858E-08  9.25804181556396E+00
 cg2d: Sum(rhs),rhsMax =  -9.35753803332773E-08  9.26323624437734E+00
 cg2d: Sum(rhs),rhsMax =  -9.35233543941649E-08  9.26842252954541E+00
 cg2d: Sum(rhs),rhsMax =  -9.34712076627875E-08  9.27358855590945E+00
 cg2d: Sum(rhs),rhsMax =  -9.34198851609835E-08  9.27872221865362E+00
 cg2d: Sum(rhs),rhsMax =  -9.33687331894362E-08  9.28381269175841E+00
 cg2d: Sum(rhs),rhsMax =  -9.33183130769066E-08  9.28884990364347E+00
 cg2d: Sum(rhs),rhsMax =  -9.32684542931383E-08  9.29382460831193E+00
 cg2d: Sum(rhs),rhsMax =  -9.32194410552256E-08  9.29872876125425E+00
 cg2d: Sum(rhs),rhsMax =  -9.31711383600486E-08  9.30355578941157E+00
 cg2d: Sum(rhs),rhsMax =  -9.31240364820951E-08  9.30830071441787E+00
 cg2d: Sum(rhs),rhsMax =  -9.30773893514925E-08  9.31296016039586E+00
 cg2d: Sum(rhs),rhsMax =  -9.30318719838397E-08  9.31753230345820E+00
 cg2d: Sum(rhs),rhsMax =  -9.29872783217434E-08  9.32201677457960E+00
 cg2d: Sum(rhs),rhsMax =  -9.29437931063148E-08  9.32641453687162E+00
 cg2d: Sum(rhs),rhsMax =  -9.29007910599466E-08  9.33072777407330E+00
 cg2d: Sum(rhs),rhsMax =  -9.28590253579387E-08  9.33495977832897E+00
 cg2d: Sum(rhs),rhsMax =  -9.28177001924269E-08  9.33911483571782E+00
 cg2d: Sum(rhs),rhsMax =  -9.27770358316593E-08  9.34319809772528E+00
 cg2d: Sum(rhs),rhsMax =  -9.27373591252945E-08  9.34721542637213E+00
 cg2d: Sum(rhs),rhsMax =  -9.26982295368362E-08  9.35117321728378E+00
 cg2d: Sum(rhs),rhsMax =  -9.26594978523099E-08  9.35507820898651E+00
 cg2d: Sum(rhs),rhsMax =  -9.26212777585533E-08  9.35893728101038E+00
 cg2d: Sum(rhs),rhsMax =  -9.25836900478316E-08  9.36275724876052E+00
 cg2d: Sum(rhs),rhsMax =  -9.25467347201447E-08  9.36654466497940E+00
 cg2d: Sum(rhs),rhsMax =  -9.25093388559617E-08  9.37030563739009E+00
 cg2d: Sum(rhs),rhsMax =  -9.24723693174201E-08  9.37404566529748E+00
 cg2d: Sum(rhs),rhsMax =  -9.24358261045199E-08  9.37776950669782E+00
 cg2d: Sum(rhs),rhsMax =  -9.23998015878169E-08  9.38148107939576E+00
 cg2d: Sum(rhs),rhsMax =  -9.23633649563271E-08  9.38518340080342E+00
 cg2d: Sum(rhs),rhsMax =  -9.23271628039402E-08  9.38887856431341E+00
 cg2d: Sum(rhs),rhsMax =  -9.22907545941598E-08  9.39256775253961E+00
 cg2d: Sum(rhs),rhsMax =  -9.22549361348501E-08  9.39625127829926E+00
 cg2d: Sum(rhs),rhsMax =  -9.22186487173349E-08  9.39992865313115E+00
 cg2d: Sum(rhs),rhsMax =  -9.21831713185384E-08  9.40359867110262E+00
 cg2d: Sum(rhs),rhsMax =  -9.21473457538013E-08  9.40725949891390E+00
 cg2d: Sum(rhs),rhsMax =  -9.21119038821416E-08  9.41090875978471E+00
 cg2d: Sum(rhs),rhsMax =  -9.20763412182168E-08  9.41454361858659E+00
 cg2d: Sum(rhs),rhsMax =  -9.20410343496769E-08  9.41816086827301E+00
 cg2d: Sum(rhs),rhsMax =  -9.20060685416502E-08  9.42175701532902E+00
 cg2d: Sum(rhs),rhsMax =  -9.19711879987517E-08  9.42532836100955E+00
 EXTERNAL_FIELDS_LOAD, it=   3600150 : Reading new data, i0,i1=    3    4 (prev=    2    3 )
 DIC_FIELDS_LOAD, it=   3600150 : Reading new data, i0,i1=    3    4 (prev=    2    3 )
 cg2d: Sum(rhs),rhsMax =  -9.19367622032041E-08  9.42887108055882E+00
 cg2d: Sum(rhs),rhsMax =  -9.19030327395376E-08  9.43235832256638E+00
 cg2d: Sum(rhs),rhsMax =  -9.18696727580937E-08  9.43577294710938E+00
 cg2d: Sum(rhs),rhsMax =  -9.18375349101552E-08  9.43909901719340E+00
 cg2d: Sum(rhs),rhsMax =  -9.18056457521743E-08  9.44232226351574E+00
 cg2d: Sum(rhs),rhsMax =  -9.17754618967592E-08  9.44543045713848E+00
 cg2d: Sum(rhs),rhsMax =  -9.17468696570722E-08  9.44841368652191E+00
 cg2d: Sum(rhs),rhsMax =  -9.17188671678559E-08  9.45126453300903E+00
 cg2d: Sum(rhs),rhsMax =  -9.16929749905648E-08  9.45397814472091E+00
 cg2d: Sum(rhs),rhsMax =  -9.16680278351123E-08  9.45655223330268E+00
 cg2d: Sum(rhs),rhsMax =  -9.16445941356869E-08  9.45898700078271E+00
 cg2d: Sum(rhs),rhsMax =  -9.16223754643397E-08  9.46128500172268E+00
 cg2d: Sum(rhs),rhsMax =  -9.16011231311131E-08  9.46345095767279E+00
 cg2d: Sum(rhs),rhsMax =  -9.15811568802383E-08  9.46549153513779E+00
 cg2d: Sum(rhs),rhsMax =  -9.15625619768434E-08  9.46741508859273E+00
 cg2d: Sum(rhs),rhsMax =  -9.15451252581079E-08  9.46923137659912E+00
 cg2d: Sum(rhs),rhsMax =  -9.15285980340741E-08  9.47095124324780E+00
 cg2d: Sum(rhs),rhsMax =  -9.15126108225195E-08  9.47258633929544E+00
 cg2d: Sum(rhs),rhsMax =  -9.14974762622478E-08  9.47414881667898E+00
 cg2d: Sum(rhs),rhsMax =  -9.14831588261222E-08  9.47565102854520E+00
 cg2d: Sum(rhs),rhsMax =  -9.14691185016636E-08  9.47710524161440E+00
 cg2d: Sum(rhs),rhsMax =  -9.14552913400257E-08  9.47852337330871E+00
 cg2d: Sum(rhs),rhsMax =  -9.14417910280463E-08  9.47991675839448E+00
 cg2d: Sum(rhs),rhsMax =  -9.14288023068366E-08  9.48129594936036E+00
 cg2d: Sum(rhs),rhsMax =  -9.14153162057119E-08  9.48267055268677E+00
 cg2d: Sum(rhs),rhsMax =  -9.14016951014673E-08  9.48404910672501E+00
 cg2d: Sum(rhs),rhsMax =  -9.13883866360266E-08  9.48543898881096E+00
 cg2d: Sum(rhs),rhsMax =  -9.13749147457565E-08  9.48684634838855E+00
 cg2d: Sum(rhs),rhsMax =  -9.13611231112554E-08  9.48827608016959E+00
 cg2d: Sum(rhs),rhsMax =  -9.13465854068818E-08  9.48973182637241E+00
 cg2d: Sum(rhs),rhsMax =  -9.13324456064402E-08  9.49121598932757E+00
 cg2d: Sum(rhs),rhsMax =  -9.13176805283911E-08  9.49272976482376E+00
 cg2d: Sum(rhs),rhsMax =  -9.13029793991882E-08  9.49427318407705E+00
 cg2d: Sum(rhs),rhsMax =  -9.12876600978052E-08  9.49584517202971E+00
 cg2d: Sum(rhs),rhsMax =  -9.12722768475760E-08  9.49744362566448E+00
 cg2d: Sum(rhs),rhsMax =  -9.12563962174318E-08  9.49906550905340E+00
 cg2d: Sum(rhs),rhsMax =  -9.12406292741252E-08  9.50070696299551E+00
 cg2d: Sum(rhs),rhsMax =  -9.12245567974423E-08  9.50236342680402E+00
 cg2d: Sum(rhs),rhsMax =  -9.12086122184519E-08  9.50402976802920E+00
 cg2d: Sum(rhs),rhsMax =  -9.11920636781360E-08  9.50570042893596E+00
 cg2d: Sum(rhs),rhsMax =  -9.11760835720088E-08  9.50736956748404E+00
 cg2d: Sum(rhs),rhsMax =  -9.11599897790438E-08  9.50903122489705E+00
 cg2d: Sum(rhs),rhsMax =  -9.11439812512072E-08  9.51067944299842E+00
 cg2d: Sum(rhs),rhsMax =  -9.11286619498242E-08  9.51230836255520E+00
 cg2d: Sum(rhs),rhsMax =  -9.11128452685261E-08  9.51391232343393E+00
 cg2d: Sum(rhs),rhsMax =  -9.10978172896648E-08  9.51548598638282E+00
 cg2d: Sum(rhs),rhsMax =  -9.10825903588375E-08  9.51702443978652E+00
 cg2d: Sum(rhs),rhsMax =  -9.10679744947629E-08  9.51852327194360E+00
 cg2d: Sum(rhs),rhsMax =  -9.10538062726118E-08  9.51997861079381E+00
 cg2d: Sum(rhs),rhsMax =  -9.10403272769145E-08  9.52138713289450E+00
 cg2d: Sum(rhs),rhsMax =  -9.10271680254482E-08  9.52274605554116E+00
 cg2d: Sum(rhs),rhsMax =  -9.10143498344951E-08  9.52405313717331E+00
 cg2d: Sum(rhs),rhsMax =  -9.10022919242692E-08  9.52530666028232E+00
 cg2d: Sum(rhs),rhsMax =  -9.09905324419924E-08  9.52650541109617E+00
 cg2d: Sum(rhs),rhsMax =  -9.09794692915966E-08  9.52764864727963E+00
 cg2d: Sum(rhs),rhsMax =  -9.09689816808168E-08  9.52873605079492E+00
 cg2d: Sum(rhs),rhsMax =  -9.09588422359775E-08  9.52976767849440E+00
 cg2d: Sum(rhs),rhsMax =  -9.09493280687457E-08  9.53074391639987E+00
 cg2d: Sum(rhs),rhsMax =  -9.09404391791213E-08  9.53166530103624E+00
 cg2d: Sum(rhs),rhsMax =  -9.09316284491979E-08  9.53253252588939E+00
 EXTERNAL_FIELDS_LOAD, it=   3600210 : Reading new data, i0,i1=    4    5 (prev=    3    4 )
 DIC_FIELDS_LOAD, it=   3600210 : Reading new data, i0,i1=    4    5 (prev=    3    4 )
 cg2d: Sum(rhs),rhsMax =  -9.09236845814121E-08  9.53334634295211E+00
 cg2d: Sum(rhs),rhsMax =  -9.09162238826866E-08  9.53412016630968E+00
 cg2d: Sum(rhs),rhsMax =  -9.09088555545168E-08  9.53486144691540E+00
 cg2d: Sum(rhs),rhsMax =  -9.09020556605356E-08  9.53557668814411E+00
 cg2d: Sum(rhs),rhsMax =  -9.08950781308704E-08  9.53626990934916E+00
 cg2d: Sum(rhs),rhsMax =  -9.08885269268467E-08  9.53694479201801E+00
 cg2d: Sum(rhs),rhsMax =  -9.08819686173956E-08  9.53760402798875E+00
 cg2d: Sum(rhs),rhsMax =  -9.08758792661502E-08  9.53824943192211E+00
 cg2d: Sum(rhs),rhsMax =  -9.08692001644340E-08  9.53888215688552E+00
 cg2d: Sum(rhs),rhsMax =  -9.08633310814366E-08  9.53950304357000E+00
 cg2d: Sum(rhs),rhsMax =  -9.08575117364308E-08  9.54011304176576E+00
 cg2d: Sum(rhs),rhsMax =  -9.08516142317239E-08  9.54071301635899E+00
 cg2d: Sum(rhs),rhsMax =  -9.08458943627011E-08  9.54130322912294E+00
 cg2d: Sum(rhs),rhsMax =  -9.08400252797037E-08  9.54188272003942E+00
 cg2d: Sum(rhs),rhsMax =  -9.08349306882883E-08  9.54244934290944E+00
 cg2d: Sum(rhs),rhsMax =  -9.08295305634965E-08  9.54299999628384E+00
 cg2d: Sum(rhs),rhsMax =  -9.08241872821236E-08  9.54353092308816E+00
 cg2d: Sum(rhs),rhsMax =  -9.08189861092978E-08  9.54403796863502E+00
 cg2d: Sum(rhs),rhsMax =  -9.08142894218145E-08  9.54451678452915E+00
 cg2d: Sum(rhs),rhsMax =  -9.08097916862971E-08  9.54496303374895E+00
 cg2d: Sum(rhs),rhsMax =  -9.08056705384297E-08  9.54537256688658E+00
 cg2d: Sum(rhs),rhsMax =  -9.08016417611179E-08  9.54574155534994E+00
 cg2d: Sum(rhs),rhsMax =  -9.07979256226099E-08  9.54606657177462E+00
 cg2d: Sum(rhs),rhsMax =  -9.07952681927782E-08  9.54634467959792E+00
 cg2d: Sum(rhs),rhsMax =  -9.07924189164078E-08  9.54657345840157E+00
 cg2d: Sum(rhs),rhsMax =  -9.07902162339269E-08  9.54675102924543E+00
 cg2d: Sum(rhs),rhsMax =  -9.07886743561903E-08  9.54687605379506E+00
 cg2d: Sum(rhs),rhsMax =  -9.07877648614885E-08  9.54694771403842E+00
 cg2d: Sum(rhs),rhsMax =  -9.07869193156330E-08  9.54696566951997E+00
 cg2d: Sum(rhs),rhsMax =  -9.07865995714019E-08  9.54692999068711E+00
 cg2d: Sum(rhs),rhsMax =  -9.07872106381546E-08  9.54684108541375E+00
 cg2d: Sum(rhs),rhsMax =  -9.07884682987969E-08  9.54669963264824E+00
 cg2d: Sum(rhs),rhsMax =  -9.07898467517043E-08  9.54650651972953E+00
 cg2d: Sum(rhs),rhsMax =  -9.07915449488428E-08  9.54626274758502E+00
 cg2d: Sum(rhs),rhsMax =  -9.07941455352557E-08  9.54596935750525E+00
 cg2d: Sum(rhs),rhsMax =  -9.07970800767544E-08  9.54562738075971E+00
 cg2d: Sum(rhs),rhsMax =  -9.08000501453898E-08  9.54523778248193E+00
 cg2d: Sum(rhs),rhsMax =  -9.08038089164620E-08  9.54480140259877E+00
 cg2d: Sum(rhs),rhsMax =  -9.08078732209106E-08  9.54431888382345E+00
 cg2d: Sum(rhs),rhsMax =  -9.08128896526250E-08  9.54379063440704E+00
 cg2d: Sum(rhs),rhsMax =  -9.08179274006216E-08  9.54321682610369E+00
 cg2d: Sum(rhs),rhsMax =  -9.08231072571652E-08  9.54259741627488E+00
 cg2d: Sum(rhs),rhsMax =  -9.08294239820862E-08  9.54193218180504E+00
 cg2d: Sum(rhs),rhsMax =  -9.08357407070071E-08  9.54122075566689E+00
 cg2d: Sum(rhs),rhsMax =  -9.08426116552619E-08  9.54046266149910E+00
 cg2d: Sum(rhs),rhsMax =  -9.08497668206110E-08  9.53965734943055E+00
 cg2d: Sum(rhs),rhsMax =  -9.08576467395505E-08  9.53880424419014E+00
 cg2d: Sum(rhs),rhsMax =  -9.08659032461401E-08  9.53790282192021E+00
 cg2d: Sum(rhs),rhsMax =  -9.08746713434994E-08  9.53695268180845E+00
 cg2d: Sum(rhs),rhsMax =  -9.08840078750472E-08  9.53595362230667E+00
 cg2d: Sum(rhs),rhsMax =  -9.08936215182621E-08  9.53490571447803E+00
 cg2d: Sum(rhs),rhsMax =  -9.09042654484438E-08  9.53380930168364E+00
 cg2d: Sum(rhs),rhsMax =  -9.09145470018302E-08  9.53266493640869E+00
 cg2d: Sum(rhs),rhsMax =  -9.09259227910297E-08  9.53147332889492E+00
 cg2d: Sum(rhs),rhsMax =  -9.09384141323244E-08  9.53023537646442E+00
 cg2d: Sum(rhs),rhsMax =  -9.09505217805417E-08  9.52895220993865E+00
 cg2d: Sum(rhs),rhsMax =  -9.09629278567081E-08  9.52762520262973E+00
 cg2d: Sum(rhs),rhsMax =  -9.09757815747980E-08  9.52625594300855E+00
 cg2d: Sum(rhs),rhsMax =  -9.09892747813501E-08  9.52484621149773E+00
 cg2d: Sum(rhs),rhsMax =  -9.10029882561503E-08  9.52339794221070E+00
 EXTERNAL_FIELDS_LOAD, it=   3600270 : Reading new data, i0,i1=    5    6 (prev=    4    5 )
 DIC_FIELDS_LOAD, it=   3600270 : Reading new data, i0,i1=    5    6 (prev=    4    5 )
 cg2d: Sum(rhs),rhsMax =  -9.10169930534721E-08  9.52191318167782E+00
 cg2d: Sum(rhs),rhsMax =  -9.10311257484864E-08  9.52041761022813E+00
 cg2d: Sum(rhs),rhsMax =  -9.10455213443129E-08  9.51892843351038E+00
 cg2d: Sum(rhs),rhsMax =  -9.10593485059508E-08  9.51746258399289E+00
 cg2d: Sum(rhs),rhsMax =  -9.10729625047679E-08  9.51603636817957E+00
 cg2d: Sum(rhs),rhsMax =  -9.10860507019606E-08  9.51466517931999E+00
 cg2d: Sum(rhs),rhsMax =  -9.10986344138109E-08  9.51336322967766E+00
 cg2d: Sum(rhs),rhsMax =  -9.11102233658312E-08  9.51214329321166E+00
 cg2d: Sum(rhs),rhsMax =  -9.11212367782355E-08  9.51101645114812E+00
 cg2d: Sum(rhs),rhsMax =  -9.11308219997409E-08  9.50999185515969E+00
 cg2d: Sum(rhs),rhsMax =  -9.11397606273567E-08  9.50907652378690E+00
 cg2d: Sum(rhs),rhsMax =  -9.11473847509114E-08  9.50827517814543E+00
 cg2d: Sum(rhs),rhsMax =  -9.11540354309182E-08  9.50759014752173E+00
 cg2d: Sum(rhs),rhsMax =  -9.11595421371203E-08  9.50702134377118E+00
 cg2d: Sum(rhs),rhsMax =  -9.11640682943471E-08  9.50656629011210E+00
 cg2d: Sum(rhs),rhsMax =  -9.11673012637948E-08  9.50622019182364E+00
 cg2d: Sum(rhs),rhsMax =  -9.11696744765322E-08  9.50597606771963E+00
 cg2d: Sum(rhs),rhsMax =  -9.11708539774736E-08  9.50582494250500E+00
 cg2d: Sum(rhs),rhsMax =  -9.11716497853376E-08  9.50575608648473E+00
 cg2d: Sum(rhs),rhsMax =  -9.11714224116622E-08  9.50575729587021E+00
 cg2d: Sum(rhs),rhsMax =  -9.11708468720462E-08  9.50581523373235E+00
 cg2d: Sum(rhs),rhsMax =  -9.11699018502077E-08  9.50591575069248E+00
 cg2d: Sum(rhs),rhsMax =  -9.11685589244371E-08  9.50604420974297E+00
 cg2d: Sum(rhs),rhsMax =  -9.11669744141363E-08  9.50618583284504E+00
 cg2d: Sum(rhs),rhsMax =  -9.11656883317846E-08  9.50632606101357E+00
 cg2d: Sum(rhs),rhsMax =  -9.11643525114414E-08  9.50645090757042E+00
 cg2d: Sum(rhs),rhsMax =  -9.11635567035773E-08  9.50654729113363E+00
 cg2d: Sum(rhs),rhsMax =  -9.11632938027651E-08  9.50660334354173E+00
 cg2d: Sum(rhs),rhsMax =  -9.11633009081925E-08  9.50660868062301E+00
 cg2d: Sum(rhs),rhsMax =  -9.11639332912273E-08  9.50655462562515E+00
 cg2d: Sum(rhs),rhsMax =  -9.11649706836215E-08  9.50643436311089E+00
 cg2d: Sum(rhs),rhsMax =  -9.11672302095212E-08  9.50624304674150E+00
 cg2d: Sum(rhs),rhsMax =  -9.11696460548228E-08  9.50597781905916E+00
 cg2d: Sum(rhs),rhsMax =  -9.11727440211507E-08  9.50563777710892E+00
 cg2d: Sum(rhs),rhsMax =  -9.11770854372662E-08  9.50522393135291E+00
 cg2d: Sum(rhs),rhsMax =  -9.11816186999204E-08  9.50473911463816E+00
 cg2d: Sum(rhs),rhsMax =  -9.11870614572763E-08  9.50418773930678E+00
 cg2d: Sum(rhs),rhsMax =  -9.11928168534359E-08  9.50357558691374E+00
 cg2d: Sum(rhs),rhsMax =  -9.11992827923314E-08  9.50290964447458E+00
 cg2d: Sum(rhs),rhsMax =  -9.12065729608003E-08  9.50219791542795E+00
 cg2d: Sum(rhs),rhsMax =  -9.12139270781154E-08  9.50144918276843E+00
 cg2d: Sum(rhs),rhsMax =  -9.12212811954305E-08  9.50067274580360E+00
 cg2d: Sum(rhs),rhsMax =  -9.12293955934729E-08  9.49987815929010E+00
 cg2d: Sum(rhs),rhsMax =  -9.12369131356172E-08  9.49907498366882E+00
 cg2d: Sum(rhs),rhsMax =  -9.12447788437021E-08  9.49827255755378E+00
 cg2d: Sum(rhs),rhsMax =  -9.12528008711888E-08  9.49747978836020E+00
 cg2d: Sum(rhs),rhsMax =  -9.12602686753416E-08  9.49670496341604E+00
 cg2d: Sum(rhs),rhsMax =  -9.12679780640246E-08  9.49595558374171E+00
 cg2d: Sum(rhs),rhsMax =  -9.12747850634332E-08  9.49523821505845E+00
 cg2d: Sum(rhs),rhsMax =  -9.12811941589098E-08  9.49455836839740E+00
 cg2d: Sum(rhs),rhsMax =  -9.12878306280618E-08  9.49392042323925E+00
 cg2d: Sum(rhs),rhsMax =  -9.12937139219139E-08  9.49332754785973E+00
 cg2d: Sum(rhs),rhsMax =  -9.12992632606802E-08  9.49278165465699E+00
 cg2d: Sum(rhs),rhsMax =  -9.13035833605136E-08  9.49228339433203E+00
 cg2d: Sum(rhs),rhsMax =  -9.13086424247922E-08  9.49183218209292E+00
 cg2d: Sum(rhs),rhsMax =  -9.13127422563775E-08  9.49142625728328E+00
 cg2d: Sum(rhs),rhsMax =  -9.13163518134752E-08  9.49106276286301E+00
 cg2d: Sum(rhs),rhsMax =  -9.13194782015125E-08  9.49073783789306E+00
 cg2d: Sum(rhs),rhsMax =  -9.13225406407037E-08  9.49044672400271E+00
 cg2d: Sum(rhs),rhsMax =  -9.13253046519458E-08  9.49018390323782E+00
 EXTERNAL_FIELDS_LOAD, it=   3600330 : Reading new data, i0,i1=    6    7 (prev=    5    6 )
 DIC_FIELDS_LOAD, it=   3600330 : Reading new data, i0,i1=    6    7 (prev=    5    6 )
 cg2d: Sum(rhs),rhsMax =  -9.13276210212643E-08  9.48994325700856E+00
 cg2d: Sum(rhs),rhsMax =  -9.13303352945150E-08  9.48970801758053E+00
 cg2d: Sum(rhs),rhsMax =  -9.13328221940901E-08  9.48946471682098E+00
 cg2d: Sum(rhs),rhsMax =  -9.13353943587936E-08  9.48919980375378E+00
 cg2d: Sum(rhs),rhsMax =  -9.13383644274290E-08  9.48889996251626E+00
 cg2d: Sum(rhs),rhsMax =  -9.13418460868343E-08  9.48855235316500E+00
 cg2d: Sum(rhs),rhsMax =  -9.13461093432488E-08  9.48814487205053E+00
 cg2d: Sum(rhs),rhsMax =  -9.13508344524416E-08  9.48766639266868E+00
 cg2d: Sum(rhs),rhsMax =  -9.13563624749258E-08  9.48710698236420E+00
 cg2d: Sum(rhs),rhsMax =  -9.13624518261713E-08  9.48645808347463E+00
 cg2d: Sum(rhs),rhsMax =  -9.13698130489138E-08  9.48571268422533E+00
 cg2d: Sum(rhs),rhsMax =  -9.13783111400335E-08  9.48486545850383E+00
 cg2d: Sum(rhs),rhsMax =  -9.13876760932908E-08  9.48391285858374E+00
 cg2d: Sum(rhs),rhsMax =  -9.13977800109933E-08  9.48285315351105E+00
 cg2d: Sum(rhs),rhsMax =  -9.14093334358768E-08  9.48168641391458E+00
 cg2d: Sum(rhs),rhsMax =  -9.14215760872139E-08  9.48041445516485E+00
 cg2d: Sum(rhs),rhsMax =  -9.14348703418000E-08  9.47904073781749E+00
 cg2d: Sum(rhs),rhsMax =  -9.14490314585237E-08  9.47757022510765E+00
 cg2d: Sum(rhs),rhsMax =  -9.14641802296501E-08  9.47600920384239E+00
 cg2d: Sum(rhs),rhsMax =  -9.14802384954783E-08  9.47436507523804E+00
 cg2d: Sum(rhs),rhsMax =  -9.14970428311790E-08  9.47264612546539E+00
 cg2d: Sum(rhs),rhsMax =  -9.15143658630768E-08  9.47086128598380E+00
 cg2d: Sum(rhs),rhsMax =  -9.15317244221114E-08  9.46901988541289E+00
 cg2d: Sum(rhs),rhsMax =  -9.15503548526431E-08  9.46713139755286E+00
 cg2d: Sum(rhs),rhsMax =  -9.15688005420634E-08  9.46520519129246E+00
 cg2d: Sum(rhs),rhsMax =  -9.15879354579374E-08  9.46325027783096E+00
 cg2d: Sum(rhs),rhsMax =  -9.16070561629567E-08  9.46127510172983E+00
 cg2d: Sum(rhs),rhsMax =  -9.16269016215665E-08  9.45928736176468E+00
 cg2d: Sum(rhs),rhsMax =  -9.16458375854745E-08  9.45729384446051E+00
 cg2d: Sum(rhs),rhsMax =  -9.16652354021608E-08  9.45530032221759E+00
 cg2d: Sum(rhs),rhsMax =  -9.16847469056847E-08  9.45331147339530E+00
 cg2d: Sum(rhs),rhsMax =  -9.17041660386531E-08  9.45133082537812E+00
 cg2d: Sum(rhs),rhsMax =  -9.17234714847837E-08  9.44936073119909E+00
 cg2d: Sum(rhs),rhsMax =  -9.17423008672813E-08  9.44740238220463E+00
 cg2d: Sum(rhs),rhsMax =  -9.17614002560185E-08  9.44545585645758E+00
 cg2d: Sum(rhs),rhsMax =  -9.17801870059520E-08  9.44352020252140E+00
 cg2d: Sum(rhs),rhsMax =  -9.17989737558855E-08  9.44159355733174E+00
 cg2d: Sum(rhs),rhsMax =  -9.18179097197935E-08  9.43967327626014E+00
 cg2d: Sum(rhs),rhsMax =  -9.18367177860091E-08  9.43775607395104E+00
 cg2d: Sum(rhs),rhsMax =  -9.18552629514124E-08  9.43583817490269E+00
 cg2d: Sum(rhs),rhsMax =  -9.18742912858761E-08  9.43391546318717E+00
 cg2d: Sum(rhs),rhsMax =  -9.18933977800407E-08  9.43198362529795E+00
 cg2d: Sum(rhs),rhsMax =  -9.19123053222393E-08  9.43003828806143E+00
 cg2d: Sum(rhs),rhsMax =  -9.19319091963189E-08  9.42807514245689E+00
 cg2d: Sum(rhs),rhsMax =  -9.19516196518089E-08  9.42609005034801E+00
 cg2d: Sum(rhs),rhsMax =  -9.19711453661876E-08  9.42407914155286E+00
 cg2d: Sum(rhs),rhsMax =  -9.19916374186869E-08  9.42203890101561E+00
 cg2d: Sum(rhs),rhsMax =  -9.20122005254598E-08  9.41996625280574E+00
 cg2d: Sum(rhs),rhsMax =  -9.20328773190704E-08  9.41785862954787E+00
 cg2d: Sum(rhs),rhsMax =  -9.20541722848611E-08  9.41571402403211E+00
 cg2d: Sum(rhs),rhsMax =  -9.20761920042423E-08  9.41353104362712E+00
 cg2d: Sum(rhs),rhsMax =  -9.20975224971698E-08  9.41130897700722E+00
 cg2d: Sum(rhs),rhsMax =  -9.21202243375774E-08  9.40904782014454E+00
 cg2d: Sum(rhs),rhsMax =  -9.21427556477283E-08  9.40674826682519E+00
 cg2d: Sum(rhs),rhsMax =  -9.21658624974953E-08  9.40441167656376E+00
 cg2d: Sum(rhs),rhsMax =  -9.21897651551262E-08  9.40204003109270E+00
 cg2d: Sum(rhs),rhsMax =  -9.22136393910478E-08  9.39963588692061E+00
 cg2d: Sum(rhs),rhsMax =  -9.22377765277815E-08  9.39720232327049E+00
 cg2d: Sum(rhs),rhsMax =  -9.22617147125493E-08  9.39474287623570E+00
 cg2d: Sum(rhs),rhsMax =  -9.22866476571471E-08  9.39226147078604E+00
 EXTERNAL_FIELDS_LOAD, it=   3600390 : Reading new data, i0,i1=    7    8 (prev=    6    7 )
 DIC_FIELDS_LOAD, it=   3600390 : Reading new data, i0,i1=    7    8 (prev=    6    7 )
 cg2d: Sum(rhs),rhsMax =  -9.23120353490958E-08  9.38976233427929E+00
 cg2d: Sum(rhs),rhsMax =  -9.23369185557021E-08  9.38724381347799E+00
 cg2d: Sum(rhs),rhsMax =  -9.23620930848301E-08  9.38470550458213E+00
 cg2d: Sum(rhs),rhsMax =  -9.23878431535741E-08  9.38214640732935E+00
 cg2d: Sum(rhs),rhsMax =  -9.24133303215058E-08  9.37956498127073E+00
 cg2d: Sum(rhs),rhsMax =  -9.24395564538827E-08  9.37695924403383E+00
 cg2d: Sum(rhs),rhsMax =  -9.24659673273709E-08  9.37432689628576E+00
 cg2d: Sum(rhs),rhsMax =  -9.24926268908166E-08  9.37166545130188E+00
 cg2d: Sum(rhs),rhsMax =  -9.25199330481519E-08  9.36897236493602E+00
 cg2d: Sum(rhs),rhsMax =  -9.25472107837777E-08  9.36624514198210E+00
 cg2d: Sum(rhs),rhsMax =  -9.25749148450450E-08  9.36348144222541E+00
 cg2d: Sum(rhs),rhsMax =  -9.26027894365689E-08  9.36067916467522E+00
 cg2d: Sum(rhs),rhsMax =  -9.26316801042049E-08  9.35783651518778E+00
 cg2d: Sum(rhs),rhsMax =  -9.26604357687211E-08  9.35495205473915E+00
 cg2d: Sum(rhs),rhsMax =  -9.26899872411013E-08  9.35202472862356E+00
 cg2d: Sum(rhs),rhsMax =  -9.27198087197212E-08  9.34905386050751E+00
 cg2d: Sum(rhs),rhsMax =  -9.27502270542391E-08  9.34603912446753E+00
 cg2d: Sum(rhs),rhsMax =  -9.27809580275607E-08  9.34298052032945E+00
 cg2d: Sum(rhs),rhsMax =  -9.28122148025068E-08  9.33987837125357E+00
 cg2d: Sum(rhs),rhsMax =  -9.28438836922396E-08  9.33673332003228E+00
 cg2d: Sum(rhs),rhsMax =  -9.28756591633828E-08  9.33354631509102E+00
 cg2d: Sum(rhs),rhsMax =  -9.29085999246126E-08  9.33031856217985E+00
 cg2d: Sum(rhs),rhsMax =  -9.29414056827227E-08  9.32705144157814E+00
 cg2d: Sum(rhs),rhsMax =  -9.29742824951063E-08  9.32374640924821E+00
 cg2d: Sum(rhs),rhsMax =  -9.30079835370634E-08  9.32040491207867E+00
 cg2d: Sum(rhs),rhsMax =  -9.30417982658582E-08  9.31702830536998E+00
 cg2d: Sum(rhs),rhsMax =  -9.30764798567907E-08  9.31361778906816E+00
 cg2d: Sum(rhs),rhsMax =  -9.31104011669959E-08  9.31017435680010E+00
 cg2d: Sum(rhs),rhsMax =  -9.31454593455783E-08  9.30669874783390E+00
 cg2d: Sum(rhs),rhsMax =  -9.31809367443748E-08  9.30319140183628E+00
 cg2d: Sum(rhs),rhsMax =  -9.32159238686836E-08  9.29965242032067E+00
 cg2d: Sum(rhs),rhsMax =  -9.32518702256857E-08  9.29608155387300E+00
 cg2d: Sum(rhs),rhsMax =  -9.32883352788849E-08  9.29247816276956E+00
 cg2d: Sum(rhs),rhsMax =  -9.33245232204172E-08  9.28884120452690E+00
 cg2d: Sum(rhs),rhsMax =  -9.33613577558390E-08  9.28516924951164E+00
 cg2d: Sum(rhs),rhsMax =  -9.33982562401070E-08  9.28146051649491E+00
 cg2d: Sum(rhs),rhsMax =  -9.34364479121541E-08  9.27771291851975E+00
 cg2d: Sum(rhs),rhsMax =  -9.34740143065937E-08  9.27392411497484E+00
 cg2d: Sum(rhs),rhsMax =  -9.35126251988549E-08  9.27009157616147E+00
 cg2d: Sum(rhs),rhsMax =  -9.35518329470142E-08  9.26621266064052E+00
 cg2d: Sum(rhs),rhsMax =  -9.35912964905583E-08  9.26228469753356E+00
 cg2d: Sum(rhs),rhsMax =  -9.36311082000429E-08  9.25830502540661E+00
 cg2d: Sum(rhs),rhsMax =  -9.36718080879473E-08  9.25427104022615E+00
 cg2d: Sum(rhs),rhsMax =  -9.37130835154676E-08  9.25018025806528E+00
 cg2d: Sum(rhs),rhsMax =  -9.37547639523473E-08  9.24603037476154E+00
 cg2d: Sum(rhs),rhsMax =  -9.37974888870485E-08  9.24181932462259E+00
 cg2d: Sum(rhs),rhsMax =  -9.38402919814507E-08  9.23754533703139E+00
 cg2d: Sum(rhs),rhsMax =  -9.38843172093584E-08  9.23320698439808E+00
 cg2d: Sum(rhs),rhsMax =  -9.39290814017113E-08  9.22880321317793E+00
 cg2d: Sum(rhs),rhsMax =  -9.39739734917566E-08  9.22433335164241E+00
 cg2d: Sum(rhs),rhsMax =  -9.40200521881707E-08  9.21979710173837E+00
 cg2d: Sum(rhs),rhsMax =  -9.40667135296280E-08  9.21519452384442E+00
 cg2d: Sum(rhs),rhsMax =  -9.41140712029664E-08  9.21052602027441E+00
 cg2d: Sum(rhs),rhsMax =  -9.41621181027585E-08  9.20579231856880E+00
 cg2d: Sum(rhs),rhsMax =  -9.42108115964402E-08  9.20099445172383E+00
 cg2d: Sum(rhs),rhsMax =  -9.42603506359774E-08  9.19613373409314E+00
 cg2d: Sum(rhs),rhsMax =  -9.43106570616692E-08  9.19121172891709E+00
 cg2d: Sum(rhs),rhsMax =  -9.43619582471911E-08  9.18623021276131E+00
 cg2d: Sum(rhs),rhsMax =  -9.44129254776271E-08  9.18119115032627E+00
 cg2d: Sum(rhs),rhsMax =  -9.44648874678933E-08  9.17609666859133E+00
 EXTERNAL_FIELDS_LOAD, it=   3600450 : Reading new data, i0,i1=    8    9 (prev=    7    8 )
 DIC_FIELDS_LOAD, it=   3600450 : Reading new data, i0,i1=    8    9 (prev=    7    8 )
 cg2d: Sum(rhs),rhsMax =  -9.45180929079470E-08  9.17094900539886E+00
 cg2d: Sum(rhs),rhsMax =  -9.45713196642828E-08  9.16576037761048E+00
 cg2d: Sum(rhs),rhsMax =  -9.46249869571147E-08  9.16053907873528E+00
 cg2d: Sum(rhs),rhsMax =  -9.46787679367844E-08  9.15529303788953E+00
 cg2d: Sum(rhs),rhsMax =  -9.47327123412833E-08  9.15002961005962E+00
 cg2d: Sum(rhs),rhsMax =  -9.47873814993727E-08  9.14475542293395E+00
 cg2d: Sum(rhs),rhsMax =  -9.48415888046839E-08  9.13947626776025E+00
 cg2d: Sum(rhs),rhsMax =  -9.48963148061921E-08  9.13419703804716E+00
 cg2d: Sum(rhs),rhsMax =  -9.49505718494947E-08  9.12892171232682E+00
 cg2d: Sum(rhs),rhsMax =  -9.50055820680973E-08  9.12365335338700E+00
 cg2d: Sum(rhs),rhsMax =  -9.50602441207593E-08  9.11839411243203E+00
 cg2d: Sum(rhs),rhsMax =  -9.51149274897034E-08  9.11314523538299E+00
 cg2d: Sum(rhs),rhsMax =  -9.51689713701853E-08  9.10790707134369E+00
 cg2d: Sum(rhs),rhsMax =  -9.52241663298992E-08  9.10267908920085E+00
 cg2d: Sum(rhs),rhsMax =  -9.52785583763216E-08  9.09745990818067E+00
 cg2d: Sum(rhs),rhsMax =  -9.53332346398383E-08  9.09224734512777E+00
 cg2d: Sum(rhs),rhsMax =  -9.53879322196372E-08  9.08703847736888E+00
 cg2d: Sum(rhs),rhsMax =  -9.54423811094784E-08  9.08182972075513E+00
 cg2d: Sum(rhs),rhsMax =  -9.54974623823546E-08  9.07661692347198E+00
 cg2d: Sum(rhs),rhsMax =  -9.55527141854873E-08  9.07139547821490E+00
 cg2d: Sum(rhs),rhsMax =  -9.56078878289190E-08  9.06616045270155E+00
 cg2d: Sum(rhs),rhsMax =  -9.56632462134621E-08  9.06090673305150E+00
 cg2d: Sum(rhs),rhsMax =  -9.57190593453561E-08  9.05562917574046E+00
 cg2d: Sum(rhs),rhsMax =  -9.57753982788745E-08  9.05032276301453E+00
 cg2d: Sum(rhs),rhsMax =  -9.58323127520089E-08  9.04498274779792E+00
 cg2d: Sum(rhs),rhsMax =  -9.58890566948867E-08  9.03960479010611E+00
 cg2d: Sum(rhs),rhsMax =  -9.59469090844323E-08  9.03418508103277E+00
 cg2d: Sum(rhs),rhsMax =  -9.60046975251316E-08  9.02872044807494E+00
 cg2d: Sum(rhs),rhsMax =  -9.60634949365158E-08  9.02320843719522E+00
 cg2d: Sum(rhs),rhsMax =  -9.61234505325592E-08  9.01764736350553E+00
 cg2d: Sum(rhs),rhsMax =  -9.61829158541150E-08  9.01203632711249E+00
 cg2d: Sum(rhs),rhsMax =  -9.62436175200310E-08  9.00637519234014E+00
 cg2d: Sum(rhs),rhsMax =  -9.63047241953063E-08  9.00066454100738E+00
 cg2d: Sum(rhs),rhsMax =  -9.63663566722062E-08  8.99490560644289E+00
 cg2d: Sum(rhs),rhsMax =  -9.64286215321408E-08  8.98910019830229E+00
 cg2d: Sum(rhs),rhsMax =  -9.64914832479735E-08  8.98325060608421E+00
 cg2d: Sum(rhs),rhsMax =  -9.65549631359863E-08  8.97735949860674E+00
 cg2d: Sum(rhs),rhsMax =  -9.66191180395981E-08  8.97142982445055E+00
 cg2d: Sum(rhs),rhsMax =  -9.66832942594920E-08  8.96546471599943E+00
 cg2d: Sum(rhs),rhsMax =  -9.67482520763951E-08  8.95946740124540E+00
 cg2d: Sum(rhs),rhsMax =  -9.68132098932983E-08  8.95344112713886E+00
 cg2d: Sum(rhs),rhsMax =  -9.68790274669118E-08  8.94738909112794E+00
 cg2d: Sum(rhs),rhsMax =  -9.69447810916790E-08  8.94131438207753E+00
 cg2d: Sum(rhs),rhsMax =  -9.70111884157632E-08  8.93521991327319E+00
 cg2d: Sum(rhs),rhsMax =  -9.70773115227530E-08  8.92910833888471E+00
 cg2d: Sum(rhs),rhsMax =  -9.71445075492738E-08  8.92298199747039E+00
 cg2d: Sum(rhs),rhsMax =  -9.72113554098541E-08  8.91684290726808E+00
 cg2d: Sum(rhs),rhsMax =  -9.72787574937684E-08  8.91069264633776E+00
 cg2d: Sum(rhs),rhsMax =  -9.73459535202892E-08  8.90453228797114E+00
 cg2d: Sum(rhs),rhsMax =  -9.74135971887335E-08  8.89836249714105E+00
 cg2d: Sum(rhs),rhsMax =  -9.74817027099562E-08  8.89218368115518E+00
 cg2d: Sum(rhs),rhsMax =  -9.75496519117769E-08  8.88599608996445E+00
 cg2d: Sum(rhs),rhsMax =  -9.76179350686834E-08  8.87979980032782E+00
 cg2d: Sum(rhs),rhsMax =  -9.76860476953334E-08  8.87359466021019E+00
 cg2d: Sum(rhs),rhsMax =  -9.77549490244201E-08  8.86737992136571E+00
 cg2d: Sum(rhs),rhsMax =  -9.78237792992331E-08  8.86115449881272E+00
 cg2d: Sum(rhs),rhsMax =  -9.78925882577641E-08  8.85491714939279E+00
 cg2d: Sum(rhs),rhsMax =  -9.79620651264668E-08  8.84866650814923E+00
 cg2d: Sum(rhs),rhsMax =  -9.80318830556826E-08  8.84239908862083E+00
 cg2d: Sum(rhs),rhsMax =  -9.81016583523342E-08  8.83611205511795E+00
 EXTERNAL_FIELDS_LOAD, it=   3600510 : Reading new data, i0,i1=    9   10 (prev=    8    9 )
 DIC_FIELDS_LOAD, it=   3600510 : Reading new data, i0,i1=    9   10 (prev=    8    9 )
 cg2d: Sum(rhs),rhsMax =  -9.81721868242857E-08  8.82980306034887E+00
 cg2d: Sum(rhs),rhsMax =  -9.82427721396562E-08  8.82347164349139E+00
 cg2d: Sum(rhs),rhsMax =  -9.83135990395567E-08  8.81711735596894E+00
 cg2d: Sum(rhs),rhsMax =  -9.83851720093298E-08  8.81074020360017E+00
 cg2d: Sum(rhs),rhsMax =  -9.84564962891454E-08  8.80434063629974E+00
 cg2d: Sum(rhs),rhsMax =  -9.85286376931072E-08  8.79791959804717E+00
 cg2d: Sum(rhs),rhsMax =  -9.86011414738641E-08  8.79147850051498E+00
 cg2d: Sum(rhs),rhsMax =  -9.86734960406466E-08  8.78501923806664E+00
 cg2d: Sum(rhs),rhsMax =  -9.87464900958912E-08  8.77854412431977E+00
 cg2d: Sum(rhs),rhsMax =  -9.88197470519481E-08  8.77205585109022E+00
 cg2d: Sum(rhs),rhsMax =  -9.88934729662105E-08  8.76555740298602E+00
 cg2d: Sum(rhs),rhsMax =  -9.89669146633787E-08  8.75905198910442E+00
 cg2d: Sum(rhs),rhsMax =  -9.90407258427695E-08  8.75254295465281E+00
 cg2d: Sum(rhs),rhsMax =  -9.91145014950234E-08  8.74603368964057E+00
 cg2d: Sum(rhs),rhsMax =  -9.91886466295000E-08  8.73952755244439E+00
 cg2d: Sum(rhs),rhsMax =  -9.92623157003436E-08  8.73302782624689E+00
 cg2d: Sum(rhs),rhsMax =  -9.93363400425551E-08  8.72653766294564E+00
 cg2d: Sum(rhs),rhsMax =  -9.94104141227581E-08  8.72006002219781E+00
 cg2d: Sum(rhs),rhsMax =  -9.94844668866790E-08  8.71359759621992E+00
 cg2d: Sum(rhs),rhsMax =  -9.95583775420528E-08  8.70715278372291E+00
 cg2d: Sum(rhs),rhsMax =  -9.96322597757171E-08  8.70072771032166E+00
 cg2d: Sum(rhs),rhsMax =  -9.97059714791249E-08  8.69432422374462E+00
 cg2d: Sum(rhs),rhsMax =  -9.97792923840279E-08  8.68794392220557E+00
 cg2d: Sum(rhs),rhsMax =  -9.98527127649140E-08  8.68159287495532E+00
 cg2d: Sum(rhs),rhsMax =  -9.99256144496030E-08  8.67527594836007E+00
 cg2d: Sum(rhs),rhsMax =  -9.99983740257449E-08  8.66899648662334E+00
 cg2d: Sum(rhs),rhsMax =  -1.00070764119664E-07  8.66275674813775E+00
 cg2d: Sum(rhs),rhsMax =  -1.00142791836788E-07  8.65655808426570E+00
 cg2d: Sum(rhs),rhsMax =  -1.00214123222031E-07  8.65040095427649E+00
 cg2d: Sum(rhs),rhsMax =  -1.00285419080137E-07  8.64428511771589E+00
 cg2d: Sum(rhs),rhsMax =  -1.00356203347474E-07  8.63820779072895E+00
 cg2d: Sum(rhs),rhsMax =  -1.00426881033400E-07  8.63216610266613E+00
 cg2d: Sum(rhs),rhsMax =  -1.00497182131676E-07  8.62615664857018E+00
 cg2d: Sum(rhs),rhsMax =  -1.00566929006618E-07  8.62017549344574E+00
 cg2d: Sum(rhs),rhsMax =  -1.00636839306389E-07  8.61421824973427E+00
 cg2d: Sum(rhs),rhsMax =  -1.00706515127058E-07  8.60828014305759E+00
 cg2d: Sum(rhs),rhsMax =  -1.00776318845419E-07  8.60235619466164E+00
 cg2d: Sum(rhs),rhsMax =  -1.00845916506387E-07  8.59644141396147E+00
 cg2d: Sum(rhs),rhsMax =  -1.00915485745645E-07  8.59053104903554E+00
 cg2d: Sum(rhs),rhsMax =  -1.00985261042297E-07  8.58462072248315E+00
 cg2d: Sum(rhs),rhsMax =  -1.01055491086299E-07  8.57870663714626E+00
 cg2d: Sum(rhs),rhsMax =  -1.01125422702353E-07  8.57278566865890E+00
 cg2d: Sum(rhs),rhsMax =  -1.01195716695202E-07  8.56685532083521E+00
 cg2d: Sum(rhs),rhsMax =  -1.01266216745444E-07  8.56091374139585E+00
 cg2d: Sum(rhs),rhsMax =  -1.01337192859319E-07  8.55495975914983E+00
 cg2d: Sum(rhs),rhsMax =  -1.01408346608878E-07  8.54899275863313E+00
 cg2d: Sum(rhs),rhsMax =  -1.01479535885574E-07  8.54301265247851E+00
 cg2d: Sum(rhs),rhsMax =  -1.01551435705005E-07  8.53701978569626E+00
 cg2d: Sum(rhs),rhsMax =  -1.01622724457684E-07  8.53101490472480E+00
 cg2d: Sum(rhs),rhsMax =  -1.01695292187287E-07  8.52499919193590E+00
 cg2d: Sum(rhs),rhsMax =  -1.01767554383514E-07  8.51897431341724E+00
 cg2d: Sum(rhs),rhsMax =  -1.01840242905382E-07  8.51294235247767E+00
 cg2d: Sum(rhs),rhsMax =  -1.01912846162122E-07  8.50690569200869E+00
 cg2d: Sum(rhs),rhsMax =  -1.01985413891725E-07  8.50087005576702E+00
 cg2d: Sum(rhs),rhsMax =  -1.02058450579534E-07  8.49484015017416E+00
 cg2d: Sum(rhs),rhsMax =  -1.02131188839394E-07  8.48882063673028E+00
 cg2d: Sum(rhs),rhsMax =  -1.02203856044980E-07  8.48281607441673E+00
 cg2d: Sum(rhs),rhsMax =  -1.02276672464541E-07  8.47683086082370E+00
 cg2d: Sum(rhs),rhsMax =  -1.02349595465512E-07  8.47086915096995E+00
 cg2d: Sum(rhs),rhsMax =  -1.02421360281824E-07  8.46493476809303E+00
 EXTERNAL_FIELDS_LOAD, it=   3600570 : Reading new data, i0,i1=   10   11 (prev=    9   10 )
 DIC_FIELDS_LOAD, it=   3600570 : Reading new data, i0,i1=   10   11 (prev=    9   10 )
 cg2d: Sum(rhs),rhsMax =  -1.02493515896640E-07  8.45903109783263E+00
 cg2d: Sum(rhs),rhsMax =  -1.02564975179575E-07  8.45319648993583E+00
 cg2d: Sum(rhs),rhsMax =  -1.02634501786270E-07  8.44745634270964E+00
 cg2d: Sum(rhs),rhsMax =  -1.02703893389844E-07  8.44183524325516E+00
 cg2d: Sum(rhs),rhsMax =  -1.02770819410125E-07  8.43635626330932E+00
 cg2d: Sum(rhs),rhsMax =  -1.02836231974379E-07  8.43104036727980E+00
 cg2d: Sum(rhs),rhsMax =  -1.02899214482477E-07  8.42590597581903E+00
 cg2d: Sum(rhs),rhsMax =  -1.02960150627496E-07  8.42096861540595E+00
 cg2d: Sum(rhs),rhsMax =  -1.03018727770632E-07  8.41624063283881E+00
 cg2d: Sum(rhs),rhsMax =  -1.03074462742825E-07  8.41173099284368E+00
 cg2d: Sum(rhs),rhsMax =  -1.03127582917750E-07  8.40744522364360E+00
 cg2d: Sum(rhs),rhsMax =  -1.03177704602331E-07  8.40338548638234E+00
 cg2d: Sum(rhs),rhsMax =  -1.03225289649345E-07  8.39955071057647E+00
 cg2d: Sum(rhs),rhsMax =  -1.03270444640202E-07  8.39593686353065E+00
 cg2d: Sum(rhs),rhsMax =  -1.03312800092681E-07  8.39253726007720E+00
 cg2d: Sum(rhs),rhsMax =  -1.03352554958747E-07  8.38934286490718E+00
 cg2d: Sum(rhs),rhsMax =  -1.03389886874083E-07  8.38634267692018E+00
 cg2d: Sum(rhs),rhsMax =  -1.03425186637196E-07  8.38352418466840E+00
 cg2d: Sum(rhs),rhsMax =  -1.03458575040349E-07  8.38087384792736E+00
 cg2d: Sum(rhs),rhsMax =  -1.03489654179612E-07  8.37837764295235E+00
 cg2d: Sum(rhs),rhsMax =  -1.03519347760539E-07  8.37602165023152E+00
 cg2d: Sum(rhs),rhsMax =  -1.03547364460610E-07  8.37379265495454E+00
 cg2d: Sum(rhs),rhsMax =  -1.03573896126363E-07  8.37167859305842E+00
 cg2d: Sum(rhs),rhsMax =  -1.03599155920620E-07  8.36966841617237E+00
 cg2d: Sum(rhs),rhsMax =  -1.03623357006200E-07  8.36775262363169E+00
 cg2d: Sum(rhs),rhsMax =  -1.03646584648232E-07  8.36592322530019E+00
 cg2d: Sum(rhs),rhsMax =  -1.03668426731929E-07  8.36417370361670E+00
 cg2d: Sum(rhs),rhsMax =  -1.03689806962848E-07  8.36249893566327E+00
 cg2d: Sum(rhs),rhsMax =  -1.03710164012227E-07  8.36089512198643E+00
 cg2d: Sum(rhs),rhsMax =  -1.03729064448999E-07  8.35935972193128E+00
 cg2d: Sum(rhs),rhsMax =  -1.03747986202052E-07  8.35789132052859E+00
 cg2d: Sum(rhs),rhsMax =  -1.03765373182796E-07  8.35648953984663E+00
 cg2d: Sum(rhs),rhsMax =  -1.03782369365035E-07  8.35515503666620E+00
 cg2d: Sum(rhs),rhsMax =  -1.03798733164240E-07  8.35388959337713E+00
 cg2d: Sum(rhs),rhsMax =  -1.03813491136862E-07  8.35269612989214E+00
 cg2d: Sum(rhs),rhsMax =  -1.03827638042731E-07  8.35157865319166E+00
 cg2d: Sum(rhs),rhsMax =  -1.03841280463257E-07  8.35054220321588E+00
 cg2d: Sum(rhs),rhsMax =  -1.03853331268056E-07  8.34959282244478E+00
 cg2d: Sum(rhs),rhsMax =  -1.03864024936229E-07  8.34873757212784E+00
 cg2d: Sum(rhs),rhsMax =  -1.03873794898846E-07  8.34798443944571E+00
 cg2d: Sum(rhs),rhsMax =  -1.03881951929452E-07  8.34734205444848E+00
 cg2d: Sum(rhs),rhsMax =  -1.03888730507151E-07  8.34681927427749E+00
 cg2d: Sum(rhs),rhsMax =  -1.03893782466002E-07  8.34642479662444E+00
 cg2d: Sum(rhs),rhsMax =  -1.03896695691219E-07  8.34616690162161E+00
 cg2d: Sum(rhs),rhsMax =  -1.03898251779810E-07  8.34605328416144E+00
 cg2d: Sum(rhs),rhsMax =  -1.03897747294468E-07  8.34609086201575E+00
 cg2d: Sum(rhs),rhsMax =  -1.03895416714295E-07  8.34628560159372E+00
 cg2d: Sum(rhs),rhsMax =  -1.03891132141598E-07  8.34664238294981E+00
 cg2d: Sum(rhs),rhsMax =  -1.03884730151549E-07  8.34716488141953E+00
 cg2d: Sum(rhs),rhsMax =  -1.03876232060429E-07  8.34785544920597E+00
 cg2d: Sum(rhs),rhsMax =  -1.03865339440290E-07  8.34871504733891E+00
 cg2d: Sum(rhs),rhsMax =  -1.03852393351644E-07  8.34974320296400E+00
 cg2d: Sum(rhs),rhsMax =  -1.03837578535604E-07  8.35093803633076E+00
 cg2d: Sum(rhs),rhsMax =  -1.03820866570459E-07  8.35229628921908E+00
 cg2d: Sum(rhs),rhsMax =  -1.03801575335183E-07  8.35381348895399E+00
 cg2d: Sum(rhs),rhsMax =  -1.03780770643880E-07  8.35548405560547E+00
 cg2d: Sum(rhs),rhsMax =  -1.03758168279455E-07  8.35730145035772E+00
 cg2d: Sum(rhs),rhsMax =  -1.03734052459004E-07  8.35925834161856E+00
 cg2d: Sum(rhs),rhsMax =  -1.03707641585515E-07  8.36134677020027E+00
 cg2d: Sum(rhs),rhsMax =  -1.03680264373907E-07  8.36355833544679E+00
 EXTERNAL_FIELDS_LOAD, it=   3600630 : Reading new data, i0,i1=   11   12 (prev=   10   11 )
 DIC_FIELDS_LOAD, it=   3600630 : Reading new data, i0,i1=   11   12 (prev=   10   11 )
 cg2d: Sum(rhs),rhsMax =  -1.03651167648877E-07  8.36588437297216E+00
 cg2d: Sum(rhs),rhsMax =  -1.03620983793462E-07  8.36829873825493E+00
 cg2d: Sum(rhs),rhsMax =  -1.03590167555012E-07  8.37078098256463E+00
 cg2d: Sum(rhs),rhsMax =  -1.03558832620365E-07  8.37331076990736E+00
 cg2d: Sum(rhs),rhsMax =  -1.03526986094948E-07  8.37586828475342E+00
 cg2d: Sum(rhs),rhsMax =  -1.03494969039275E-07  8.37843651347270E+00
 cg2d: Sum(rhs),rhsMax =  -1.03462959089029E-07  8.38100058596186E+00
 cg2d: Sum(rhs),rhsMax =  -1.03431759157502E-07  8.38354800119352E+00
 cg2d: Sum(rhs),rhsMax =  -1.03400431328282E-07  8.38606907281455E+00
 cg2d: Sum(rhs),rhsMax =  -1.03369536930131E-07  8.38855705740912E+00
 cg2d: Sum(rhs),rhsMax =  -1.03339182544460E-07  8.39100818777902E+00
 cg2d: Sum(rhs),rhsMax =  -1.03309091059600E-07  8.39342162927294E+00
 cg2d: Sum(rhs),rhsMax =  -1.03279326424399E-07  8.39579937673915E+00
 cg2d: Sum(rhs),rhsMax =  -1.03250158645096E-07  8.39814606298476E+00
 cg2d: Sum(rhs),rhsMax =  -1.03221587721691E-07  8.40046867037939E+00
 cg2d: Sum(rhs),rhsMax =  -1.03192640210636E-07  8.40277617859981E+00
 cg2d: Sum(rhs),rhsMax =  -1.03164317977189E-07  8.40507915533000E+00
 cg2d: Sum(rhs),rhsMax =  -1.03135583628955E-07  8.40738929078001E+00
 cg2d: Sum(rhs),rhsMax =  -1.03106465587643E-07  8.40971893982490E+00
 cg2d: Sum(rhs),rhsMax =  -1.03077603341717E-07  8.41208069021930E+00
 cg2d: Sum(rhs),rhsMax =  -1.03047760546815E-07  8.41448664736628E+00
 cg2d: Sum(rhs),rhsMax =  -1.03017328001442E-07  8.41694808963461E+00
 cg2d: Sum(rhs),rhsMax =  -1.02985850958248E-07  8.41947641344255E+00
 cg2d: Sum(rhs),rhsMax =  -1.02953762848301E-07  8.42209465677943E+00
 cg2d: Sum(rhs),rhsMax =  -1.02920779454507E-07  8.42481840011152E+00
 cg2d: Sum(rhs),rhsMax =  -1.02885756803062E-07  8.42766143831664E+00
 cg2d: Sum(rhs),rhsMax =  -1.02849760708068E-07  8.43063562227923E+00
 cg2d: Sum(rhs),rhsMax =  -1.02811505087175E-07  8.43375048923612E+00
 cg2d: Sum(rhs),rhsMax =  -1.02771743115682E-07  8.43701312183894E+00
 cg2d: Sum(rhs),rhsMax =  -1.02730268736195E-07  8.44042805498092E+00
 cg2d: Sum(rhs),rhsMax =  -1.02686364300553E-07  8.44399728026233E+00
 cg2d: Sum(rhs),rhsMax =  -1.02641237731405E-07  8.44772028674299E+00
 cg2d: Sum(rhs),rhsMax =  -1.02594057693750E-07  8.45159419183708E+00
 cg2d: Sum(rhs),rhsMax =  -1.02545079982974E-07  8.45561389463918E+00
 cg2d: Sum(rhs),rhsMax =  -1.02494418285914E-07  8.45977229544668E+00
 cg2d: Sum(rhs),rhsMax =  -1.02442626825905E-07  8.46406043486096E+00
 cg2d: Sum(rhs),rhsMax =  -1.02389186906748E-07  8.46846786249842E+00
 cg2d: Sum(rhs),rhsMax =  -1.02334411167249E-07  8.47298294092153E+00
 cg2d: Sum(rhs),rhsMax =  -1.02278569613645E-07  8.47759310010859E+00
 cg2d: Sum(rhs),rhsMax =  -1.02221783038203E-07  8.48228511495217E+00
 cg2d: Sum(rhs),rhsMax =  -1.02164435134000E-07  8.48704540520819E+00
 cg2d: Sum(rhs),rhsMax =  -1.02106639587873E-07  8.49186038102640E+00
 cg2d: Sum(rhs),rhsMax =  -1.02048161920720E-07  8.49671683330553E+00
 cg2d: Sum(rhs),rhsMax =  -1.01989222400789E-07  8.50160229731839E+00
 cg2d: Sum(rhs),rhsMax =  -1.01930119456028E-07  8.50650541756349E+00
 cg2d: Sum(rhs),rhsMax =  -1.01871734159431E-07  8.51141606286167E+00
 cg2d: Sum(rhs),rhsMax =  -1.01813114383731E-07  8.51632550458549E+00
 cg2d: Sum(rhs),rhsMax =  -1.01754352499484E-07  8.52122658728227E+00
 cg2d: Sum(rhs),rhsMax =  -1.01695938781177E-07  8.52611387363114E+00
 cg2d: Sum(rhs),rhsMax =  -1.01637908755947E-07  8.53098375482528E+00
 cg2d: Sum(rhs),rhsMax =  -1.01580091893538E-07  8.53583450654913E+00
 cg2d: Sum(rhs),rhsMax =  -1.01522516615660E-07  8.54066629803099E+00
 cg2d: Sum(rhs),rhsMax =  -1.01465325030858E-07  8.54548114840508E+00
 cg2d: Sum(rhs),rhsMax =  -1.01408510033707E-07  8.55028281355603E+00
 cg2d: Sum(rhs),rhsMax =  -1.01351844250530E-07  8.55507663782142E+00
 cg2d: Sum(rhs),rhsMax =  -1.01294901355686E-07  8.55986938569464E+00
 cg2d: Sum(rhs),rhsMax =  -1.01238242677937E-07  8.56466907941720E+00
 cg2d: Sum(rhs),rhsMax =  -1.01181711897880E-07  8.56948481849350E+00
 cg2d: Sum(rhs),rhsMax =  -1.01124427942523E-07  8.57432655386490E+00
 cg2d: Sum(rhs),rhsMax =  -1.01066994773191E-07  8.57920482306538E+00
 EXTERNAL_FIELDS_LOAD, it=   3600690 : Reading new data, i0,i1=   12    1 (prev=   11   12 )
 DIC_FIELDS_LOAD, it=   3600690 : Reading new data, i0,i1=   12    1 (prev=   11   12 )
 cg2d: Sum(rhs),rhsMax =  -1.01009099751082E-07  8.58413045456863E+00
 cg2d: Sum(rhs),rhsMax =  -1.00950970249869E-07  8.58908772075261E+00
 cg2d: Sum(rhs),rhsMax =  -1.00892201260194E-07  8.59407113784658E+00
 cg2d: Sum(rhs),rhsMax =  -1.00833979388426E-07  8.59907533504329E+00
 cg2d: Sum(rhs),rhsMax =  -1.00775366718153E-07  8.60409527812640E+00
 cg2d: Sum(rhs),rhsMax =  -1.00716533779632E-07  8.60912639608676E+00
 cg2d: Sum(rhs),rhsMax =  -1.00657807422522E-07  8.61416467727663E+00
 cg2d: Sum(rhs),rhsMax =  -1.00599194752249E-07  8.61920670304104E+00
 cg2d: Sum(rhs),rhsMax =  -1.00540219705181E-07  8.62424959025954E+00
 cg2d: Sum(rhs),rhsMax =  -1.00481713616318E-07  8.62929084710763E+00
 cg2d: Sum(rhs),rhsMax =  -1.00423278581729E-07  8.63432823431656E+00
 cg2d: Sum(rhs),rhsMax =  -1.00365085131671E-07  8.63935967110789E+00
 cg2d: Sum(rhs),rhsMax =  -1.00306984052168E-07  8.64438326330631E+00
 cg2d: Sum(rhs),rhsMax =  -1.00248698231553E-07  8.64939736363611E+00
 cg2d: Sum(rhs),rhsMax =  -1.00191144269957E-07  8.65440069908248E+00
 cg2d: Sum(rhs),rhsMax =  -1.00133568992078E-07  8.65939260929048E+00
 cg2d: Sum(rhs),rhsMax =  -1.00076100295610E-07  8.66437312037654E+00
 cg2d: Sum(rhs),rhsMax =  -1.00019036608501E-07  8.66934290835576E+00
 cg2d: Sum(rhs),rhsMax =  -9.99617597585711E-08  8.67430225124478E+00
 cg2d: Sum(rhs),rhsMax =  -9.99047102823170E-08  8.67925494682890E+00
 cg2d: Sum(rhs),rhsMax =  -9.98482363456787E-08  8.68420608713978E+00
 cg2d: Sum(rhs),rhsMax =  -9.97913716105359E-08  8.68916081980566E+00
 cg2d: Sum(rhs),rhsMax =  -9.97343434505638E-08  8.69412416784580E+00
 cg2d: Sum(rhs),rhsMax =  -9.96773295014464E-08  8.69910085245627E+00
 cg2d: Sum(rhs),rhsMax =  -9.96202871306195E-08  8.70409517445086E+00
 cg2d: Sum(rhs),rhsMax =  -9.95629250155616E-08  8.70911095741398E+00
 cg2d: Sum(rhs),rhsMax =  -9.95059110664442E-08  8.71415148969223E+00
 cg2d: Sum(rhs),rhsMax =  -9.94480160443345E-08  8.71921930590513E+00
 cg2d: Sum(rhs),rhsMax =  -9.93902702361993E-08  8.72431607432102E+00
 cg2d: Sum(rhs),rhsMax =  -9.93317215147727E-08  8.72944261226047E+00
 cg2d: Sum(rhs),rhsMax =  -9.92735280647139E-08  8.73459893266904E+00
 cg2d: Sum(rhs),rhsMax =  -9.92147448641845E-08  8.73978430818157E+00
 cg2d: Sum(rhs),rhsMax =  -9.91560966667748E-08  8.74499735837366E+00
 cg2d: Sum(rhs),rhsMax =  -9.90966526615011E-08  8.75023614706347E+00
 cg2d: Sum(rhs),rhsMax =  -9.90366970654577E-08  8.75549829188909E+00
 cg2d: Sum(rhs),rhsMax =  -9.89772743764661E-08  8.76078107848702E+00
 cg2d: Sum(rhs),rhsMax =  -9.89177024735000E-08  8.76608155580086E+00
 cg2d: Sum(rhs),rhsMax =  -9.88579742511320E-08  8.77139664107964E+00
 cg2d: Sum(rhs),rhsMax =  -9.87977060162848E-08  8.77672320795606E+00
 cg2d: Sum(rhs),rhsMax =  -9.87382264838743E-08  8.78205816635757E+00
(PID.TID 0000.0001) Did not write pickup because writePickupAtEnd = FALSE
 DIC_SURFFORCING_INIT, it=   3600000 : Reading new data, i0,i1=   12    1
 QQ: pCO2 approximation method
 QQ first guess pH 8.2869849781645275,  7.129213793781922,  34.1535348423009,  2.0282,  5.43799999999999991E-4,  8.08490416966378689E-3,  2.3086000000000002
(PID.TID 0000.0001) // =======================================================
(PID.TID 0000.0001) // Model current state
(PID.TID 0000.0001) // =======================================================
(PID.TID 0000.0001) 
 EXTERNAL_FIELDS_LOAD, it=   3600000 : Reading new data, i0,i1=   12    1 (prev=   12    0 )
 DIC_FIELDS_LOAD, it=   3600000 : Reading new data, i0,i1=   12    1 (prev=   12    0 )
 cg2d: Sum(rhs),rhsMax =  -9.92433868418630E-08  8.73439671821315E+00
 cg2d: Sum(rhs),rhsMax =  -9.91844260056496E-08  8.73957958587058E+00
 cg2d: Sum(rhs),rhsMax =  -9.91252449011881E-08  8.74478969091806E+00
 cg2d: Sum(rhs),rhsMax =  -9.90665185440776E-08  8.75002495477880E+00
 cg2d: Sum(rhs),rhsMax =  -9.90068542705558E-08  8.75528284057604E+00
 cg2d: Sum(rhs),rhsMax =  -9.89473534218632E-08  8.76056047500076E+00
 cg2d: Sum(rhs),rhsMax =  -9.88878241514612E-08  8.76585475900637E+00
 cg2d: Sum(rhs),rhsMax =  -9.88279893476829E-08  8.77116249138180E+00
 cg2d: Sum(rhs),rhsMax =  -9.87682469144602E-08  8.77648047471154E+00
 cg2d: Sum(rhs),rhsMax =  -9.87087602766223E-08  8.78180560756084E+00
 cg2d: Sum(rhs),rhsMax =  -9.86489112619893E-08  8.78713494778165E+00
 cg2d: Sum(rhs),rhsMax =  -9.85891404070571E-08  8.79246575399440E+00
 cg2d: Sum(rhs),rhsMax =  -9.85293340249882E-08  8.79779549299699E+00
 cg2d: Sum(rhs),rhsMax =  -9.84700747608258E-08  8.80312181092759E+00
 cg2d: Sum(rhs),rhsMax =  -9.84108581292276E-08  8.80844249631459E+00
 cg2d: Sum(rhs),rhsMax =  -9.83516486030567E-08  8.81375547068360E+00
 cg2d: Sum(rhs),rhsMax =  -9.82926522397065E-08  8.81905885446822E+00
 cg2d: Sum(rhs),rhsMax =  -9.82337553523394E-08  8.82435106608147E+00
 cg2d: Sum(rhs),rhsMax =  -9.81751568929212E-08  8.82963093738125E+00
 cg2d: Sum(rhs),rhsMax =  -9.81166650149135E-08  8.83489782452132E+00
 cg2d: Sum(rhs),rhsMax =  -9.80585213028462E-08  8.84015168145881E+00
 cg2d: Sum(rhs),rhsMax =  -9.80007470730015E-08  8.84539306572338E+00
 cg2d: Sum(rhs),rhsMax =  -9.79429586323022E-08  8.85062306296846E+00
 cg2d: Sum(rhs),rhsMax =  -9.78853904598509E-08  8.85584316140559E+00
 cg2d: Sum(rhs),rhsMax =  -9.78280425556477E-08  8.86105508303604E+00
 cg2d: Sum(rhs),rhsMax =  -9.77709291305473E-08  8.86626061391844E+00
 cg2d: Sum(rhs),rhsMax =  -9.77132472712583E-08  8.87146147123075E+00
 cg2d: Sum(rhs),rhsMax =  -9.76563327981239E-08  8.87665923110881E+00
 cg2d: Sum(rhs),rhsMax =  -9.75990843699037E-08  8.88185530584736E+00
 cg2d: Sum(rhs),rhsMax =  -9.75420704207863E-08  8.88705095973601E+00
 EXTERNAL_FIELDS_LOAD, it=   3600030 : Reading new data, i0,i1=    1    2 (prev=   12    1 )
 DIC_FIELDS_LOAD, it=   3600030 : Reading new data, i0,i1=    1    2 (prev=   12    1 )
 cg2d: Sum(rhs),rhsMax =  -9.74853406887632E-08  8.89224735691429E+00
 cg2d: Sum(rhs),rhsMax =  -9.74287814869967E-08  8.89742706375180E+00
 cg2d: Sum(rhs),rhsMax =  -9.73723857100595E-08  8.90258000132907E+00
 cg2d: Sum(rhs),rhsMax =  -9.73164659967551E-08  8.90769672951691E+00
 cg2d: Sum(rhs),rhsMax =  -9.72612284044772E-08  8.91276878246959E+00
 cg2d: Sum(rhs),rhsMax =  -9.72070637317302E-08  8.91778889429735E+00
 cg2d: Sum(rhs),rhsMax =  -9.71530482729577E-08  8.92275113682099E+00
 cg2d: Sum(rhs),rhsMax =  -9.70993241367069E-08  8.92765100404361E+00
 cg2d: Sum(rhs),rhsMax =  -9.70471916161841E-08  8.93248545016401E+00
 cg2d: Sum(rhs),rhsMax =  -9.69955280538670E-08  8.93725287491615E+00
 cg2d: Sum(rhs),rhsMax =  -9.69441273923621E-08  8.94195305183593E+00
 cg2d: Sum(rhs),rhsMax =  -9.68941833434656E-08  8.94658701582531E+00
 cg2d: Sum(rhs),rhsMax =  -9.68450208915783E-08  8.95115692214719E+00
 cg2d: Sum(rhs),rhsMax =  -9.67962705544778E-08  8.95566589123099E+00
 cg2d: Sum(rhs),rhsMax =  -9.67482165492584E-08  8.96011786358850E+00
 cg2d: Sum(rhs),rhsMax =  -9.67008020325011E-08  8.96451747891563E+00
 cg2d: Sum(rhs),rhsMax =  -9.66539346336504E-08  8.96886998187158E+00
 cg2d: Sum(rhs),rhsMax =  -9.66078843589457E-08  8.97318115409823E+00
 cg2d: Sum(rhs),rhsMax =  -9.65621254067628E-08  8.97745726495199E+00
 cg2d: Sum(rhs),rhsMax =  -9.65159685506478E-08  8.98170502198163E+00
 cg2d: Sum(rhs),rhsMax =  -9.64709272466280E-08  8.98593151889555E+00
 cg2d: Sum(rhs),rhsMax =  -9.64258006774799E-08  8.99014423145949E+00
 cg2d: Sum(rhs),rhsMax =  -9.63806954246138E-08  8.99435085408351E+00
 cg2d: Sum(rhs),rhsMax =  -9.63354978011921E-08  8.99855914272681E+00
 cg2d: Sum(rhs),rhsMax =  -9.62904493917449E-08  9.00277662786875E+00
 cg2d: Sum(rhs),rhsMax =  -9.62449746566563E-08  9.00700998220796E+00
 cg2d: Sum(rhs),rhsMax =  -9.61997557169525E-08  9.01126574761483E+00
 cg2d: Sum(rhs),rhsMax =  -9.61540180810516E-08  9.01555039729210E+00
 cg2d: Sum(rhs),rhsMax =  -9.61077120109621E-08  9.01986971435378E+00
 cg2d: Sum(rhs),rhsMax =  -9.60613775191632E-08  9.02422880815445E+00
 cg2d: Sum(rhs),rhsMax =  -9.60143182737738E-08  9.02863205182447E+00
 cg2d: Sum(rhs),rhsMax =  -9.59668398081703E-08  9.03308295193821E+00
 cg2d: Sum(rhs),rhsMax =  -9.59189492277801E-08  9.03758400719746E+00
 cg2d: Sum(rhs),rhsMax =  -9.58706323217484E-08  9.04213663854453E+00
 cg2d: Sum(rhs),rhsMax =  -9.58215622404168E-08  9.04674109185253E+00
 cg2d: Sum(rhs),rhsMax =  -9.57721724148541E-08  9.05139640217902E+00
 cg2d: Sum(rhs),rhsMax =  -9.57223775799321E-08  9.05610040614876E+00
 cg2d: Sum(rhs),rhsMax =  -9.56718224642827E-08  9.06084979109159E+00
 cg2d: Sum(rhs),rhsMax =  -9.56211039238042E-08  9.06564017672268E+00
 cg2d: Sum(rhs),rhsMax =  -9.55700798499493E-08  9.07046622792088E+00
 cg2d: Sum(rhs),rhsMax =  -9.55189918272481E-08  9.07532179655311E+00
 cg2d: Sum(rhs),rhsMax =  -9.54672145780933E-08  9.08020008054443E+00
 cg2d: Sum(rhs),rhsMax =  -9.54156860188959E-08  9.08509379067778E+00
 cg2d: Sum(rhs),rhsMax =  -9.53640864054250E-08  9.08999532389517E+00
 cg2d: Sum(rhs),rhsMax =  -9.53120391500306E-08  9.09489685062687E+00
 cg2d: Sum(rhs),rhsMax =  -9.52604963799786E-08  9.09979078670731E+00
 cg2d: Sum(rhs),rhsMax =  -9.52091738781746E-08  9.10466952325132E+00
 cg2d: Sum(rhs),rhsMax =  -9.51581995423112E-08  9.10952586151125E+00
 cg2d: Sum(rhs),rhsMax =  -9.51075378452515E-08  9.11435305322486E+00
 cg2d: Sum(rhs),rhsMax =  -9.50568974644739E-08  9.11914489544444E+00
 cg2d: Sum(rhs),rhsMax =  -9.50070173644235E-08  9.12389583482653E+00
 cg2d: Sum(rhs),rhsMax =  -9.49582670273230E-08  9.12860106773695E+00
 cg2d: Sum(rhs),rhsMax =  -9.49094669522310E-08  9.13325671324743E+00
 cg2d: Sum(rhs),rhsMax =  -9.48612637330370E-08  9.13785989332165E+00
 cg2d: Sum(rhs),rhsMax =  -9.48139060596986E-08  9.14240888612431E+00
 cg2d: Sum(rhs),rhsMax =  -9.47671381368309E-08  9.14690322805975E+00
 cg2d: Sum(rhs),rhsMax =  -9.47210025969980E-08  9.15134376400067E+00
 cg2d: Sum(rhs),rhsMax =  -9.46753857533622E-08  9.15573262291172E+00
 cg2d: Sum(rhs),rhsMax =  -9.46305078741716E-08  9.16007311317651E+00
 cg2d: Sum(rhs),rhsMax =  -9.45855020972886E-08  9.16436954661381E+00
 EXTERNAL_FIELDS_LOAD, it=   3600090 : Reading new data, i0,i1=    2    3 (prev=    1    2 )
 DIC_FIELDS_LOAD, it=   3600090 : Reading new data, i0,i1=    2    3 (prev=    1    2 )
 cg2d: Sum(rhs),rhsMax =  -9.45416047670733E-08  9.16862700792054E+00
 cg2d: Sum(rhs),rhsMax =  -9.44977784911316E-08  9.17286965792043E+00
 cg2d: Sum(rhs),rhsMax =  -9.44538882663437E-08  9.17711460232796E+00
 cg2d: Sum(rhs),rhsMax =  -9.44097777733077E-08  9.18137827264839E+00
 cg2d: Sum(rhs),rhsMax =  -9.43655606988614E-08  9.18567586102450E+00
 cg2d: Sum(rhs),rhsMax =  -9.43208533499273E-08  9.19002086507332E+00
 cg2d: Sum(rhs),rhsMax =  -9.42755065125311E-08  9.19442473147613E+00
 cg2d: Sum(rhs),rhsMax =  -9.42294988703907E-08  9.19889660310093E+00
 cg2d: Sum(rhs),rhsMax =  -9.41831217460276E-08  9.20344317156002E+00
 cg2d: Sum(rhs),rhsMax =  -9.41357711781166E-08  9.20806863385625E+00
 cg2d: Sum(rhs),rhsMax =  -9.40875679589226E-08  9.21277472508850E+00
 cg2d: Sum(rhs),rhsMax =  -9.40387323566938E-08  9.21756082935263E+00
 cg2d: Sum(rhs),rhsMax =  -9.39891506845925E-08  9.22242415169496E+00
 cg2d: Sum(rhs),rhsMax =  -9.39387589937724E-08  9.22735992735964E+00
 cg2d: Sum(rhs),rhsMax =  -9.38874578082505E-08  9.23236166048178E+00
 cg2d: Sum(rhs),rhsMax =  -9.38360713576003E-08  9.23742136926884E+00
 cg2d: Sum(rhs),rhsMax =  -9.37847204340869E-08  9.24252982829311E+00
 cg2d: Sum(rhs),rhsMax =  -9.37326518624104E-08  9.24767682825910E+00
 cg2d: Sum(rhs),rhsMax =  -9.36799651185538E-08  9.25285135651627E+00
 cg2d: Sum(rhs),rhsMax =  -9.36278468088858E-08  9.25804181556396E+00
 cg2d: Sum(rhs),rhsMax =  -9.35753803332773E-08  9.26323624437734E+00
 cg2d: Sum(rhs),rhsMax =  -9.35233543941649E-08  9.26842252954541E+00
 cg2d: Sum(rhs),rhsMax =  -9.34712076627875E-08  9.27358855590945E+00
 cg2d: Sum(rhs),rhsMax =  -9.34198851609835E-08  9.27872221865362E+00
 cg2d: Sum(rhs),rhsMax =  -9.33687331894362E-08  9.28381269175841E+00
 cg2d: Sum(rhs),rhsMax =  -9.33183130769066E-08  9.28884990364347E+00
 cg2d: Sum(rhs),rhsMax =  -9.32684542931383E-08  9.29382460831193E+00
 cg2d: Sum(rhs),rhsMax =  -9.32194410552256E-08  9.29872876125425E+00
 cg2d: Sum(rhs),rhsMax =  -9.31711383600486E-08  9.30355578941157E+00
 cg2d: Sum(rhs),rhsMax =  -9.31240364820951E-08  9.30830071441787E+00
 cg2d: Sum(rhs),rhsMax =  -9.30773893514925E-08  9.31296016039586E+00
 cg2d: Sum(rhs),rhsMax =  -9.30318719838397E-08  9.31753230345820E+00
 cg2d: Sum(rhs),rhsMax =  -9.29872783217434E-08  9.32201677457960E+00
 cg2d: Sum(rhs),rhsMax =  -9.29437931063148E-08  9.32641453687162E+00
 cg2d: Sum(rhs),rhsMax =  -9.29007910599466E-08  9.33072777407330E+00
 cg2d: Sum(rhs),rhsMax =  -9.28590253579387E-08  9.33495977832897E+00
 cg2d: Sum(rhs),rhsMax =  -9.28177001924269E-08  9.33911483571782E+00
 cg2d: Sum(rhs),rhsMax =  -9.27770358316593E-08  9.34319809772528E+00
 cg2d: Sum(rhs),rhsMax =  -9.27373591252945E-08  9.34721542637213E+00
 cg2d: Sum(rhs),rhsMax =  -9.26982295368362E-08  9.35117321728378E+00
 cg2d: Sum(rhs),rhsMax =  -9.26594978523099E-08  9.35507820898651E+00
 cg2d: Sum(rhs),rhsMax =  -9.26212777585533E-08  9.35893728101038E+00
 cg2d: Sum(rhs),rhsMax =  -9.25836900478316E-08  9.36275724876052E+00
 cg2d: Sum(rhs),rhsMax =  -9.25467347201447E-08  9.36654466497940E+00
 cg2d: Sum(rhs),rhsMax =  -9.25093388559617E-08  9.37030563739009E+00
 cg2d: Sum(rhs),rhsMax =  -9.24723693174201E-08  9.37404566529748E+00
 cg2d: Sum(rhs),rhsMax =  -9.24358261045199E-08  9.37776950669782E+00
 cg2d: Sum(rhs),rhsMax =  -9.23998015878169E-08  9.38148107939576E+00
 cg2d: Sum(rhs),rhsMax =  -9.23633649563271E-08  9.38518340080342E+00
 cg2d: Sum(rhs),rhsMax =  -9.23271628039402E-08  9.38887856431341E+00
 cg2d: Sum(rhs),rhsMax =  -9.22907545941598E-08  9.39256775253961E+00
 cg2d: Sum(rhs),rhsMax =  -9.22549361348501E-08  9.39625127829926E+00
 cg2d: Sum(rhs),rhsMax =  -9.22186487173349E-08  9.39992865313115E+00
 cg2d: Sum(rhs),rhsMax =  -9.21831713185384E-08  9.40359867110262E+00
 cg2d: Sum(rhs),rhsMax =  -9.21473457538013E-08  9.40725949891390E+00
 cg2d: Sum(rhs),rhsMax =  -9.21119038821416E-08  9.41090875978471E+00
 cg2d: Sum(rhs),rhsMax =  -9.20763412182168E-08  9.41454361858659E+00
 cg2d: Sum(rhs),rhsMax =  -9.20410343496769E-08  9.41816086827301E+00
 cg2d: Sum(rhs),rhsMax =  -9.20060685416502E-08  9.42175701532902E+00
 cg2d: Sum(rhs),rhsMax =  -9.19711879987517E-08  9.42532836100955E+00
 EXTERNAL_FIELDS_LOAD, it=   3600150 : Reading new data, i0,i1=    3    4 (prev=    2    3 )
 DIC_FIELDS_LOAD, it=   3600150 : Reading new data, i0,i1=    3    4 (prev=    2    3 )
 cg2d: Sum(rhs),rhsMax =  -9.19367622032041E-08  9.42887108055882E+00
 cg2d: Sum(rhs),rhsMax =  -9.19030327395376E-08  9.43235832256638E+00
 cg2d: Sum(rhs),rhsMax =  -9.18696727580937E-08  9.43577294710938E+00
 cg2d: Sum(rhs),rhsMax =  -9.18375349101552E-08  9.43909901719340E+00
 cg2d: Sum(rhs),rhsMax =  -9.18056457521743E-08  9.44232226351574E+00
 cg2d: Sum(rhs),rhsMax =  -9.17754618967592E-08  9.44543045713848E+00
 cg2d: Sum(rhs),rhsMax =  -9.17468696570722E-08  9.44841368652191E+00
 cg2d: Sum(rhs),rhsMax =  -9.17188671678559E-08  9.45126453300903E+00
 cg2d: Sum(rhs),rhsMax =  -9.16929749905648E-08  9.45397814472091E+00
 cg2d: Sum(rhs),rhsMax =  -9.16680278351123E-08  9.45655223330268E+00
 cg2d: Sum(rhs),rhsMax =  -9.16445941356869E-08  9.45898700078271E+00
 cg2d: Sum(rhs),rhsMax =  -9.16223754643397E-08  9.46128500172268E+00
 cg2d: Sum(rhs),rhsMax =  -9.16011231311131E-08  9.46345095767279E+00
 cg2d: Sum(rhs),rhsMax =  -9.15811568802383E-08  9.46549153513779E+00
 cg2d: Sum(rhs),rhsMax =  -9.15625619768434E-08  9.46741508859273E+00
 cg2d: Sum(rhs),rhsMax =  -9.15451252581079E-08  9.46923137659912E+00
 cg2d: Sum(rhs),rhsMax =  -9.15285980340741E-08  9.47095124324780E+00
 cg2d: Sum(rhs),rhsMax =  -9.15126108225195E-08  9.47258633929544E+00
 cg2d: Sum(rhs),rhsMax =  -9.14974762622478E-08  9.47414881667898E+00
 cg2d: Sum(rhs),rhsMax =  -9.14831588261222E-08  9.47565102854520E+00
 cg2d: Sum(rhs),rhsMax =  -9.14691185016636E-08  9.47710524161440E+00
 cg2d: Sum(rhs),rhsMax =  -9.14552913400257E-08  9.47852337330871E+00
 cg2d: Sum(rhs),rhsMax =  -9.14417910280463E-08  9.47991675839448E+00
 cg2d: Sum(rhs),rhsMax =  -9.14288023068366E-08  9.48129594936036E+00
 cg2d: Sum(rhs),rhsMax =  -9.14153162057119E-08  9.48267055268677E+00
 cg2d: Sum(rhs),rhsMax =  -9.14016951014673E-08  9.48404910672501E+00
 cg2d: Sum(rhs),rhsMax =  -9.13883866360266E-08  9.48543898881096E+00
 cg2d: Sum(rhs),rhsMax =  -9.13749147457565E-08  9.48684634838855E+00
 cg2d: Sum(rhs),rhsMax =  -9.13611231112554E-08  9.48827608016959E+00
 cg2d: Sum(rhs),rhsMax =  -9.13465854068818E-08  9.48973182637241E+00
 cg2d: Sum(rhs),rhsMax =  -9.13324456064402E-08  9.49121598932757E+00
 cg2d: Sum(rhs),rhsMax =  -9.13176805283911E-08  9.49272976482376E+00
 cg2d: Sum(rhs),rhsMax =  -9.13029793991882E-08  9.49427318407705E+00
 cg2d: Sum(rhs),rhsMax =  -9.12876600978052E-08  9.49584517202971E+00
 cg2d: Sum(rhs),rhsMax =  -9.12722768475760E-08  9.49744362566448E+00
 cg2d: Sum(rhs),rhsMax =  -9.12563962174318E-08  9.49906550905340E+00
 cg2d: Sum(rhs),rhsMax =  -9.12406292741252E-08  9.50070696299551E+00
 cg2d: Sum(rhs),rhsMax =  -9.12245567974423E-08  9.50236342680402E+00
 cg2d: Sum(rhs),rhsMax =  -9.12086122184519E-08  9.50402976802920E+00
 cg2d: Sum(rhs),rhsMax =  -9.11920636781360E-08  9.50570042893596E+00
 cg2d: Sum(rhs),rhsMax =  -9.11760835720088E-08  9.50736956748404E+00
 cg2d: Sum(rhs),rhsMax =  -9.11599897790438E-08  9.50903122489705E+00
 cg2d: Sum(rhs),rhsMax =  -9.11439812512072E-08  9.51067944299842E+00
 cg2d: Sum(rhs),rhsMax =  -9.11286619498242E-08  9.51230836255520E+00
 cg2d: Sum(rhs),rhsMax =  -9.11128452685261E-08  9.51391232343393E+00
 cg2d: Sum(rhs),rhsMax =  -9.10978172896648E-08  9.51548598638282E+00
 cg2d: Sum(rhs),rhsMax =  -9.10825903588375E-08  9.51702443978652E+00
 cg2d: Sum(rhs),rhsMax =  -9.10679744947629E-08  9.51852327194360E+00
 cg2d: Sum(rhs),rhsMax =  -9.10538062726118E-08  9.51997861079381E+00
 cg2d: Sum(rhs),rhsMax =  -9.10403272769145E-08  9.52138713289450E+00
 cg2d: Sum(rhs),rhsMax =  -9.10271680254482E-08  9.52274605554116E+00
 cg2d: Sum(rhs),rhsMax =  -9.10143498344951E-08  9.52405313717331E+00
 cg2d: Sum(rhs),rhsMax =  -9.10022919242692E-08  9.52530666028232E+00
 cg2d: Sum(rhs),rhsMax =  -9.09905324419924E-08  9.52650541109617E+00
 cg2d: Sum(rhs),rhsMax =  -9.09794692915966E-08  9.52764864727963E+00
 cg2d: Sum(rhs),rhsMax =  -9.09689816808168E-08  9.52873605079492E+00
 cg2d: Sum(rhs),rhsMax =  -9.09588422359775E-08  9.52976767849440E+00
 cg2d: Sum(rhs),rhsMax =  -9.09493280687457E-08  9.53074391639987E+00
 cg2d: Sum(rhs),rhsMax =  -9.09404391791213E-08  9.53166530103624E+00
 cg2d: Sum(rhs),rhsMax =  -9.09316284491979E-08  9.53253252588939E+00
 EXTERNAL_FIELDS_LOAD, it=   3600210 : Reading new data, i0,i1=    4    5 (prev=    3    4 )
 DIC_FIELDS_LOAD, it=   3600210 : Reading new data, i0,i1=    4    5 (prev=    3    4 )
 cg2d: Sum(rhs),rhsMax =  -9.09236845814121E-08  9.53334634295211E+00
 cg2d: Sum(rhs),rhsMax =  -9.09162238826866E-08  9.53412016630968E+00
 cg2d: Sum(rhs),rhsMax =  -9.09088555545168E-08  9.53486144691540E+00
 cg2d: Sum(rhs),rhsMax =  -9.09020556605356E-08  9.53557668814411E+00
 cg2d: Sum(rhs),rhsMax =  -9.08950781308704E-08  9.53626990934916E+00
 cg2d: Sum(rhs),rhsMax =  -9.08885269268467E-08  9.53694479201801E+00
 cg2d: Sum(rhs),rhsMax =  -9.08819686173956E-08  9.53760402798875E+00
 cg2d: Sum(rhs),rhsMax =  -9.08758792661502E-08  9.53824943192211E+00
 cg2d: Sum(rhs),rhsMax =  -9.08692001644340E-08  9.53888215688552E+00
 cg2d: Sum(rhs),rhsMax =  -9.08633310814366E-08  9.53950304357000E+00
 cg2d: Sum(rhs),rhsMax =  -9.08575117364308E-08  9.54011304176576E+00
 cg2d: Sum(rhs),rhsMax =  -9.08516142317239E-08  9.54071301635899E+00
 cg2d: Sum(rhs),rhsMax =  -9.08458943627011E-08  9.54130322912294E+00
 cg2d: Sum(rhs),rhsMax =  -9.08400252797037E-08  9.54188272003942E+00
 cg2d: Sum(rhs),rhsMax =  -9.08349306882883E-08  9.54244934290944E+00
 cg2d: Sum(rhs),rhsMax =  -9.08295305634965E-08  9.54299999628384E+00
 cg2d: Sum(rhs),rhsMax =  -9.08241872821236E-08  9.54353092308816E+00
 cg2d: Sum(rhs),rhsMax =  -9.08189861092978E-08  9.54403796863502E+00
 cg2d: Sum(rhs),rhsMax =  -9.08142894218145E-08  9.54451678452915E+00
 cg2d: Sum(rhs),rhsMax =  -9.08097916862971E-08  9.54496303374895E+00
 cg2d: Sum(rhs),rhsMax =  -9.08056705384297E-08  9.54537256688658E+00
 cg2d: Sum(rhs),rhsMax =  -9.08016417611179E-08  9.54574155534994E+00
 cg2d: Sum(rhs),rhsMax =  -9.07979256226099E-08  9.54606657177462E+00
 cg2d: Sum(rhs),rhsMax =  -9.07952681927782E-08  9.54634467959792E+00
 cg2d: Sum(rhs),rhsMax =  -9.07924189164078E-08  9.54657345840157E+00
 cg2d: Sum(rhs),rhsMax =  -9.07902162339269E-08  9.54675102924543E+00
 cg2d: Sum(rhs),rhsMax =  -9.07886743561903E-08  9.54687605379506E+00
 cg2d: Sum(rhs),rhsMax =  -9.07877648614885E-08  9.54694771403842E+00
 cg2d: Sum(rhs),rhsMax =  -9.07869193156330E-08  9.54696566951997E+00
 cg2d: Sum(rhs),rhsMax =  -9.07865995714019E-08  9.54692999068711E+00
 cg2d: Sum(rhs),rhsMax =  -9.07872106381546E-08  9.54684108541375E+00
 cg2d: Sum(rhs),rhsMax =  -9.07884682987969E-08  9.54669963264824E+00
 cg2d: Sum(rhs),rhsMax =  -9.07898467517043E-08  9.54650651972953E+00
 cg2d: Sum(rhs),rhsMax =  -9.07915449488428E-08  9.54626274758502E+00
 cg2d: Sum(rhs),rhsMax =  -9.07941455352557E-08  9.54596935750525E+00
 cg2d: Sum(rhs),rhsMax =  -9.07970800767544E-08  9.54562738075971E+00
 cg2d: Sum(rhs),rhsMax =  -9.08000501453898E-08  9.54523778248193E+00
 cg2d: Sum(rhs),rhsMax =  -9.08038089164620E-08  9.54480140259877E+00
 cg2d: Sum(rhs),rhsMax =  -9.08078732209106E-08  9.54431888382345E+00
 cg2d: Sum(rhs),rhsMax =  -9.08128896526250E-08  9.54379063440704E+00
 cg2d: Sum(rhs),rhsMax =  -9.08179274006216E-08  9.54321682610369E+00
 cg2d: Sum(rhs),rhsMax =  -9.08231072571652E-08  9.54259741627488E+00
 cg2d: Sum(rhs),rhsMax =  -9.08294239820862E-08  9.54193218180504E+00
 cg2d: Sum(rhs),rhsMax =  -9.08357407070071E-08  9.54122075566689E+00
 cg2d: Sum(rhs),rhsMax =  -9.08426116552619E-08  9.54046266149910E+00
 cg2d: Sum(rhs),rhsMax =  -9.08497668206110E-08  9.53965734943055E+00
 cg2d: Sum(rhs),rhsMax =  -9.08576467395505E-08  9.53880424419014E+00
 cg2d: Sum(rhs),rhsMax =  -9.08659032461401E-08  9.53790282192021E+00
 cg2d: Sum(rhs),rhsMax =  -9.08746713434994E-08  9.53695268180845E+00
 cg2d: Sum(rhs),rhsMax =  -9.08840078750472E-08  9.53595362230667E+00
 cg2d: Sum(rhs),rhsMax =  -9.08936215182621E-08  9.53490571447803E+00
 cg2d: Sum(rhs),rhsMax =  -9.09042654484438E-08  9.53380930168364E+00
 cg2d: Sum(rhs),rhsMax =  -9.09145470018302E-08  9.53266493640869E+00
 cg2d: Sum(rhs),rhsMax =  -9.09259227910297E-08  9.53147332889492E+00
 cg2d: Sum(rhs),rhsMax =  -9.09384141323244E-08  9.53023537646442E+00
 cg2d: Sum(rhs),rhsMax =  -9.09505217805417E-08  9.52895220993865E+00
 cg2d: Sum(rhs),rhsMax =  -9.09629278567081E-08  9.52762520262973E+00
 cg2d: Sum(rhs),rhsMax =  -9.09757815747980E-08  9.52625594300855E+00
 cg2d: Sum(rhs),rhsMax =  -9.09892747813501E-08  9.52484621149773E+00
 cg2d: Sum(rhs),rhsMax =  -9.10029882561503E-08  9.52339794221070E+00
 EXTERNAL_FIELDS_LOAD, it=   3600270 : Reading new data, i0,i1=    5    6 (prev=    4    5 )
 DIC_FIELDS_LOAD, it=   3600270 : Reading new data, i0,i1=    5    6 (prev=    4    5 )
 cg2d: Sum(rhs),rhsMax =  -9.10169930534721E-08  9.52191318167782E+00
 cg2d: Sum(rhs),rhsMax =  -9.10311257484864E-08  9.52041761022813E+00
 cg2d: Sum(rhs),rhsMax =  -9.10455213443129E-08  9.51892843351038E+00
 cg2d: Sum(rhs),rhsMax =  -9.10593485059508E-08  9.51746258399289E+00
 cg2d: Sum(rhs),rhsMax =  -9.10729625047679E-08  9.51603636817957E+00
 cg2d: Sum(rhs),rhsMax =  -9.10860507019606E-08  9.51466517931999E+00
 cg2d: Sum(rhs),rhsMax =  -9.10986344138109E-08  9.51336322967766E+00
 cg2d: Sum(rhs),rhsMax =  -9.11102233658312E-08  9.51214329321166E+00
 cg2d: Sum(rhs),rhsMax =  -9.11212367782355E-08  9.51101645114812E+00
 cg2d: Sum(rhs),rhsMax =  -9.11308219997409E-08  9.50999185515969E+00
 cg2d: Sum(rhs),rhsMax =  -9.11397606273567E-08  9.50907652378690E+00
 cg2d: Sum(rhs),rhsMax =  -9.11473847509114E-08  9.50827517814543E+00
 cg2d: Sum(rhs),rhsMax =  -9.11540354309182E-08  9.50759014752173E+00
 cg2d: Sum(rhs),rhsMax =  -9.11595421371203E-08  9.50702134377118E+00
 cg2d: Sum(rhs),rhsMax =  -9.11640682943471E-08  9.50656629011210E+00
 cg2d: Sum(rhs),rhsMax =  -9.11673012637948E-08  9.50622019182364E+00
 cg2d: Sum(rhs),rhsMax =  -9.11696744765322E-08  9.50597606771963E+00
 cg2d: Sum(rhs),rhsMax =  -9.11708539774736E-08  9.50582494250500E+00
 cg2d: Sum(rhs),rhsMax =  -9.11716497853376E-08  9.50575608648473E+00
 cg2d: Sum(rhs),rhsMax =  -9.11714224116622E-08  9.50575729587021E+00
 cg2d: Sum(rhs),rhsMax =  -9.11708468720462E-08  9.50581523373235E+00
 cg2d: Sum(rhs),rhsMax =  -9.11699018502077E-08  9.50591575069248E+00
 cg2d: Sum(rhs),rhsMax =  -9.11685589244371E-08  9.50604420974297E+00
 cg2d: Sum(rhs),rhsMax =  -9.11669744141363E-08  9.50618583284504E+00
 cg2d: Sum(rhs),rhsMax =  -9.11656883317846E-08  9.50632606101357E+00
 cg2d: Sum(rhs),rhsMax =  -9.11643525114414E-08  9.50645090757042E+00
 cg2d: Sum(rhs),rhsMax =  -9.11635567035773E-08  9.50654729113363E+00
 cg2d: Sum(rhs),rhsMax =  -9.11632938027651E-08  9.50660334354173E+00
 cg2d: Sum(rhs),rhsMax =  -9.11633009081925E-08  9.50660868062301E+00
 cg2d: Sum(rhs),rhsMax =  -9.11639332912273E-08  9.50655462562515E+00
 cg2d: Sum(rhs),rhsMax =  -9.11649706836215E-08  9.50643436311089E+00
 cg2d: Sum(rhs),rhsMax =  -9.11672302095212E-08  9.50624304674150E+00
 cg2d: Sum(rhs),rhsMax =  -9.11696460548228E-08  9.50597781905916E+00
 cg2d: Sum(rhs),rhsMax =  -9.11727440211507E-08  9.50563777710892E+00
 cg2d: Sum(rhs),rhsMax =  -9.11770854372662E-08  9.50522393135291E+00
 cg2d: Sum(rhs),rhsMax =  -9.11816186999204E-08  9.50473911463816E+00
 cg2d: Sum(rhs),rhsMax =  -9.11870614572763E-08  9.50418773930678E+00
 cg2d: Sum(rhs),rhsMax =  -9.11928168534359E-08  9.50357558691374E+00
 cg2d: Sum(rhs),rhsMax =  -9.11992827923314E-08  9.50290964447458E+00
 cg2d: Sum(rhs),rhsMax =  -9.12065729608003E-08  9.50219791542795E+00
 cg2d: Sum(rhs),rhsMax =  -9.12139270781154E-08  9.50144918276843E+00
 cg2d: Sum(rhs),rhsMax =  -9.12212811954305E-08  9.50067274580360E+00
 cg2d: Sum(rhs),rhsMax =  -9.12293955934729E-08  9.49987815929010E+00
 cg2d: Sum(rhs),rhsMax =  -9.12369131356172E-08  9.49907498366882E+00
 cg2d: Sum(rhs),rhsMax =  -9.12447788437021E-08  9.49827255755378E+00
 cg2d: Sum(rhs),rhsMax =  -9.12528008711888E-08  9.49747978836020E+00
 cg2d: Sum(rhs),rhsMax =  -9.12602686753416E-08  9.49670496341604E+00
 cg2d: Sum(rhs),rhsMax =  -9.12679780640246E-08  9.49595558374171E+00
 cg2d: Sum(rhs),rhsMax =  -9.12747850634332E-08  9.49523821505845E+00
 cg2d: Sum(rhs),rhsMax =  -9.12811941589098E-08  9.49455836839740E+00
 cg2d: Sum(rhs),rhsMax =  -9.12878306280618E-08  9.49392042323925E+00
 cg2d: Sum(rhs),rhsMax =  -9.12937139219139E-08  9.49332754785973E+00
 cg2d: Sum(rhs),rhsMax =  -9.12992632606802E-08  9.49278165465699E+00
 cg2d: Sum(rhs),rhsMax =  -9.13035833605136E-08  9.49228339433203E+00
 cg2d: Sum(rhs),rhsMax =  -9.13086424247922E-08  9.49183218209292E+00
 cg2d: Sum(rhs),rhsMax =  -9.13127422563775E-08  9.49142625728328E+00
 cg2d: Sum(rhs),rhsMax =  -9.13163518134752E-08  9.49106276286301E+00
 cg2d: Sum(rhs),rhsMax =  -9.13194782015125E-08  9.49073783789306E+00
 cg2d: Sum(rhs),rhsMax =  -9.13225406407037E-08  9.49044672400271E+00
 cg2d: Sum(rhs),rhsMax =  -9.13253046519458E-08  9.49018390323782E+00
 EXTERNAL_FIELDS_LOAD, it=   3600330 : Reading new data, i0,i1=    6    7 (prev=    5    6 )
 DIC_FIELDS_LOAD, it=   3600330 : Reading new data, i0,i1=    6    7 (prev=    5    6 )
 cg2d: Sum(rhs),rhsMax =  -9.13276210212643E-08  9.48994325700856E+00
 cg2d: Sum(rhs),rhsMax =  -9.13303352945150E-08  9.48970801758053E+00
 cg2d: Sum(rhs),rhsMax =  -9.13328221940901E-08  9.48946471682098E+00
 cg2d: Sum(rhs),rhsMax =  -9.13353943587936E-08  9.48919980375378E+00
 cg2d: Sum(rhs),rhsMax =  -9.13383644274290E-08  9.48889996251626E+00
 cg2d: Sum(rhs),rhsMax =  -9.13418460868343E-08  9.48855235316500E+00
 cg2d: Sum(rhs),rhsMax =  -9.13461093432488E-08  9.48814487205053E+00
 cg2d: Sum(rhs),rhsMax =  -9.13508344524416E-08  9.48766639266868E+00
 cg2d: Sum(rhs),rhsMax =  -9.13563624749258E-08  9.48710698236420E+00
 cg2d: Sum(rhs),rhsMax =  -9.13624518261713E-08  9.48645808347463E+00
 cg2d: Sum(rhs),rhsMax =  -9.13698130489138E-08  9.48571268422533E+00
 cg2d: Sum(rhs),rhsMax =  -9.13783111400335E-08  9.48486545850383E+00
 cg2d: Sum(rhs),rhsMax =  -9.13876760932908E-08  9.48391285858374E+00
 cg2d: Sum(rhs),rhsMax =  -9.13977800109933E-08  9.48285315351105E+00
 cg2d: Sum(rhs),rhsMax =  -9.14093334358768E-08  9.48168641391458E+00
 cg2d: Sum(rhs),rhsMax =  -9.14215760872139E-08  9.48041445516485E+00
 cg2d: Sum(rhs),rhsMax =  -9.14348703418000E-08  9.47904073781749E+00
 cg2d: Sum(rhs),rhsMax =  -9.14490314585237E-08  9.47757022510765E+00
 cg2d: Sum(rhs),rhsMax =  -9.14641802296501E-08  9.47600920384239E+00
 cg2d: Sum(rhs),rhsMax =  -9.14802384954783E-08  9.47436507523804E+00
 cg2d: Sum(rhs),rhsMax =  -9.14970428311790E-08  9.47264612546539E+00
 cg2d: Sum(rhs),rhsMax =  -9.15143658630768E-08  9.47086128598380E+00
 cg2d: Sum(rhs),rhsMax =  -9.15317244221114E-08  9.46901988541289E+00
 cg2d: Sum(rhs),rhsMax =  -9.15503548526431E-08  9.46713139755286E+00
 cg2d: Sum(rhs),rhsMax =  -9.15688005420634E-08  9.46520519129246E+00
 cg2d: Sum(rhs),rhsMax =  -9.15879354579374E-08  9.46325027783096E+00
 cg2d: Sum(rhs),rhsMax =  -9.16070561629567E-08  9.46127510172983E+00
 cg2d: Sum(rhs),rhsMax =  -9.16269016215665E-08  9.45928736176468E+00
 cg2d: Sum(rhs),rhsMax =  -9.16458375854745E-08  9.45729384446051E+00
 cg2d: Sum(rhs),rhsMax =  -9.16652354021608E-08  9.45530032221759E+00
 cg2d: Sum(rhs),rhsMax =  -9.16847469056847E-08  9.45331147339530E+00
 cg2d: Sum(rhs),rhsMax =  -9.17041660386531E-08  9.45133082537812E+00
 cg2d: Sum(rhs),rhsMax =  -9.17234714847837E-08  9.44936073119909E+00
 cg2d: Sum(rhs),rhsMax =  -9.17423008672813E-08  9.44740238220463E+00
 cg2d: Sum(rhs),rhsMax =  -9.17614002560185E-08  9.44545585645758E+00
 cg2d: Sum(rhs),rhsMax =  -9.17801870059520E-08  9.44352020252140E+00
 cg2d: Sum(rhs),rhsMax =  -9.17989737558855E-08  9.44159355733174E+00
 cg2d: Sum(rhs),rhsMax =  -9.18179097197935E-08  9.43967327626014E+00
 cg2d: Sum(rhs),rhsMax =  -9.18367177860091E-08  9.43775607395104E+00
 cg2d: Sum(rhs),rhsMax =  -9.18552629514124E-08  9.43583817490269E+00
 cg2d: Sum(rhs),rhsMax =  -9.18742912858761E-08  9.43391546318717E+00
 cg2d: Sum(rhs),rhsMax =  -9.18933977800407E-08  9.43198362529795E+00
 cg2d: Sum(rhs),rhsMax =  -9.19123053222393E-08  9.43003828806143E+00
 cg2d: Sum(rhs),rhsMax =  -9.19319091963189E-08  9.42807514245689E+00
 cg2d: Sum(rhs),rhsMax =  -9.19516196518089E-08  9.42609005034801E+00
 cg2d: Sum(rhs),rhsMax =  -9.19711453661876E-08  9.42407914155286E+00
 cg2d: Sum(rhs),rhsMax =  -9.19916374186869E-08  9.42203890101561E+00
 cg2d: Sum(rhs),rhsMax =  -9.20122005254598E-08  9.41996625280574E+00
 cg2d: Sum(rhs),rhsMax =  -9.20328773190704E-08  9.41785862954787E+00
 cg2d: Sum(rhs),rhsMax =  -9.20541722848611E-08  9.41571402403211E+00
 cg2d: Sum(rhs),rhsMax =  -9.20761920042423E-08  9.41353104362712E+00
 cg2d: Sum(rhs),rhsMax =  -9.20975224971698E-08  9.41130897700722E+00
 cg2d: Sum(rhs),rhsMax =  -9.21202243375774E-08  9.40904782014454E+00
 cg2d: Sum(rhs),rhsMax =  -9.21427556477283E-08  9.40674826682519E+00
 cg2d: Sum(rhs),rhsMax =  -9.21658624974953E-08  9.40441167656376E+00
 cg2d: Sum(rhs),rhsMax =  -9.21897651551262E-08  9.40204003109270E+00
 cg2d: Sum(rhs),rhsMax =  -9.22136393910478E-08  9.39963588692061E+00
 cg2d: Sum(rhs),rhsMax =  -9.22377765277815E-08  9.39720232327049E+00
 cg2d: Sum(rhs),rhsMax =  -9.22617147125493E-08  9.39474287623570E+00
 cg2d: Sum(rhs),rhsMax =  -9.22866476571471E-08  9.39226147078604E+00
 EXTERNAL_FIELDS_LOAD, it=   3600390 : Reading new data, i0,i1=    7    8 (prev=    6    7 )
 DIC_FIELDS_LOAD, it=   3600390 : Reading new data, i0,i1=    7    8 (prev=    6    7 )
 cg2d: Sum(rhs),rhsMax =  -9.23120353490958E-08  9.38976233427929E+00
 cg2d: Sum(rhs),rhsMax =  -9.23369185557021E-08  9.38724381347799E+00
 cg2d: Sum(rhs),rhsMax =  -9.23620930848301E-08  9.38470550458213E+00
 cg2d: Sum(rhs),rhsMax =  -9.23878431535741E-08  9.38214640732935E+00
 cg2d: Sum(rhs),rhsMax =  -9.24133303215058E-08  9.37956498127073E+00
 cg2d: Sum(rhs),rhsMax =  -9.24395564538827E-08  9.37695924403383E+00
 cg2d: Sum(rhs),rhsMax =  -9.24659673273709E-08  9.37432689628576E+00
 cg2d: Sum(rhs),rhsMax =  -9.24926268908166E-08  9.37166545130188E+00
 cg2d: Sum(rhs),rhsMax =  -9.25199330481519E-08  9.36897236493602E+00
 cg2d: Sum(rhs),rhsMax =  -9.25472107837777E-08  9.36624514198210E+00
 cg2d: Sum(rhs),rhsMax =  -9.25749148450450E-08  9.36348144222541E+00
 cg2d: Sum(rhs),rhsMax =  -9.26027894365689E-08  9.36067916467522E+00
 cg2d: Sum(rhs),rhsMax =  -9.26316801042049E-08  9.35783651518778E+00
 cg2d: Sum(rhs),rhsMax =  -9.26604357687211E-08  9.35495205473915E+00
 cg2d: Sum(rhs),rhsMax =  -9.26899872411013E-08  9.35202472862356E+00
 cg2d: Sum(rhs),rhsMax =  -9.27198087197212E-08  9.34905386050751E+00
 cg2d: Sum(rhs),rhsMax =  -9.27502270542391E-08  9.34603912446753E+00
 cg2d: Sum(rhs),rhsMax =  -9.27809580275607E-08  9.34298052032945E+00
 cg2d: Sum(rhs),rhsMax =  -9.28122148025068E-08  9.33987837125357E+00
 cg2d: Sum(rhs),rhsMax =  -9.28438836922396E-08  9.33673332003228E+00
 cg2d: Sum(rhs),rhsMax =  -9.28756591633828E-08  9.33354631509102E+00
 cg2d: Sum(rhs),rhsMax =  -9.29085999246126E-08  9.33031856217985E+00
 cg2d: Sum(rhs),rhsMax =  -9.29414056827227E-08  9.32705144157814E+00
 cg2d: Sum(rhs),rhsMax =  -9.29742824951063E-08  9.32374640924821E+00
 cg2d: Sum(rhs),rhsMax =  -9.30079835370634E-08  9.32040491207867E+00
 cg2d: Sum(rhs),rhsMax =  -9.30417982658582E-08  9.31702830536998E+00
 cg2d: Sum(rhs),rhsMax =  -9.30764798567907E-08  9.31361778906816E+00
 cg2d: Sum(rhs),rhsMax =  -9.31104011669959E-08  9.31017435680010E+00
 cg2d: Sum(rhs),rhsMax =  -9.31454593455783E-08  9.30669874783390E+00
 cg2d: Sum(rhs),rhsMax =  -9.31809367443748E-08  9.30319140183628E+00
 cg2d: Sum(rhs),rhsMax =  -9.32159238686836E-08  9.29965242032067E+00
 cg2d: Sum(rhs),rhsMax =  -9.32518702256857E-08  9.29608155387300E+00
 cg2d: Sum(rhs),rhsMax =  -9.32883352788849E-08  9.29247816276956E+00
 cg2d: Sum(rhs),rhsMax =  -9.33245232204172E-08  9.28884120452690E+00
 cg2d: Sum(rhs),rhsMax =  -9.33613577558390E-08  9.28516924951164E+00
 cg2d: Sum(rhs),rhsMax =  -9.33982562401070E-08  9.28146051649491E+00
 cg2d: Sum(rhs),rhsMax =  -9.34364479121541E-08  9.27771291851975E+00
 cg2d: Sum(rhs),rhsMax =  -9.34740143065937E-08  9.27392411497484E+00
 cg2d: Sum(rhs),rhsMax =  -9.35126251988549E-08  9.27009157616147E+00
 cg2d: Sum(rhs),rhsMax =  -9.35518329470142E-08  9.26621266064052E+00
 cg2d: Sum(rhs),rhsMax =  -9.35912964905583E-08  9.26228469753356E+00
 cg2d: Sum(rhs),rhsMax =  -9.36311082000429E-08  9.25830502540661E+00
 cg2d: Sum(rhs),rhsMax =  -9.36718080879473E-08  9.25427104022615E+00
 cg2d: Sum(rhs),rhsMax =  -9.37130835154676E-08  9.25018025806528E+00
 cg2d: Sum(rhs),rhsMax =  -9.37547639523473E-08  9.24603037476154E+00
 cg2d: Sum(rhs),rhsMax =  -9.37974888870485E-08  9.24181932462259E+00
 cg2d: Sum(rhs),rhsMax =  -9.38402919814507E-08  9.23754533703139E+00
 cg2d: Sum(rhs),rhsMax =  -9.38843172093584E-08  9.23320698439808E+00
 cg2d: Sum(rhs),rhsMax =  -9.39290814017113E-08  9.22880321317793E+00
 cg2d: Sum(rhs),rhsMax =  -9.39739734917566E-08  9.22433335164241E+00
 cg2d: Sum(rhs),rhsMax =  -9.40200521881707E-08  9.21979710173837E+00
 cg2d: Sum(rhs),rhsMax =  -9.40667135296280E-08  9.21519452384442E+00
 cg2d: Sum(rhs),rhsMax =  -9.41140712029664E-08  9.21052602027441E+00
 cg2d: Sum(rhs),rhsMax =  -9.41621181027585E-08  9.20579231856880E+00
 cg2d: Sum(rhs),rhsMax =  -9.42108115964402E-08  9.20099445172383E+00
 cg2d: Sum(rhs),rhsMax =  -9.42603506359774E-08  9.19613373409314E+00
 cg2d: Sum(rhs),rhsMax =  -9.43106570616692E-08  9.19121172891709E+00
 cg2d: Sum(rhs),rhsMax =  -9.43619582471911E-08  9.18623021276131E+00
 cg2d: Sum(rhs),rhsMax =  -9.44129254776271E-08  9.18119115032627E+00
 cg2d: Sum(rhs),rhsMax =  -9.44648874678933E-08  9.17609666859133E+00
 EXTERNAL_FIELDS_LOAD, it=   3600450 : Reading new data, i0,i1=    8    9 (prev=    7    8 )
 DIC_FIELDS_LOAD, it=   3600450 : Reading new data, i0,i1=    8    9 (prev=    7    8 )
 cg2d: Sum(rhs),rhsMax =  -9.45180929079470E-08  9.17094900539886E+00
 cg2d: Sum(rhs),rhsMax =  -9.45713196642828E-08  9.16576037761048E+00
 cg2d: Sum(rhs),rhsMax =  -9.46249869571147E-08  9.16053907873528E+00
 cg2d: Sum(rhs),rhsMax =  -9.46787679367844E-08  9.15529303788953E+00
 cg2d: Sum(rhs),rhsMax =  -9.47327123412833E-08  9.15002961005962E+00
 cg2d: Sum(rhs),rhsMax =  -9.47873814993727E-08  9.14475542293395E+00
 cg2d: Sum(rhs),rhsMax =  -9.48415888046839E-08  9.13947626776025E+00
 cg2d: Sum(rhs),rhsMax =  -9.48963148061921E-08  9.13419703804716E+00
 cg2d: Sum(rhs),rhsMax =  -9.49505718494947E-08  9.12892171232682E+00
 cg2d: Sum(rhs),rhsMax =  -9.50055820680973E-08  9.12365335338700E+00
 cg2d: Sum(rhs),rhsMax =  -9.50602441207593E-08  9.11839411243203E+00
 cg2d: Sum(rhs),rhsMax =  -9.51149274897034E-08  9.11314523538299E+00
 cg2d: Sum(rhs),rhsMax =  -9.51689713701853E-08  9.10790707134369E+00
 cg2d: Sum(rhs),rhsMax =  -9.52241663298992E-08  9.10267908920085E+00
 cg2d: Sum(rhs),rhsMax =  -9.52785583763216E-08  9.09745990818067E+00
 cg2d: Sum(rhs),rhsMax =  -9.53332346398383E-08  9.09224734512777E+00
 cg2d: Sum(rhs),rhsMax =  -9.53879322196372E-08  9.08703847736888E+00
 cg2d: Sum(rhs),rhsMax =  -9.54423811094784E-08  9.08182972075513E+00
 cg2d: Sum(rhs),rhsMax =  -9.54974623823546E-08  9.07661692347198E+00
 cg2d: Sum(rhs),rhsMax =  -9.55527141854873E-08  9.07139547821490E+00
 cg2d: Sum(rhs),rhsMax =  -9.56078878289190E-08  9.06616045270155E+00
 cg2d: Sum(rhs),rhsMax =  -9.56632462134621E-08  9.06090673305150E+00
 cg2d: Sum(rhs),rhsMax =  -9.57190593453561E-08  9.05562917574046E+00
 cg2d: Sum(rhs),rhsMax =  -9.57753982788745E-08  9.05032276301453E+00
 cg2d: Sum(rhs),rhsMax =  -9.58323127520089E-08  9.04498274779792E+00
 cg2d: Sum(rhs),rhsMax =  -9.58890566948867E-08  9.03960479010611E+00
 cg2d: Sum(rhs),rhsMax =  -9.59469090844323E-08  9.03418508103277E+00
 cg2d: Sum(rhs),rhsMax =  -9.60046975251316E-08  9.02872044807494E+00
 cg2d: Sum(rhs),rhsMax =  -9.60634949365158E-08  9.02320843719522E+00
 cg2d: Sum(rhs),rhsMax =  -9.61234505325592E-08  9.01764736350553E+00
 cg2d: Sum(rhs),rhsMax =  -9.61829158541150E-08  9.01203632711249E+00
 cg2d: Sum(rhs),rhsMax =  -9.62436175200310E-08  9.00637519234014E+00
 cg2d: Sum(rhs),rhsMax =  -9.63047241953063E-08  9.00066454100738E+00
 cg2d: Sum(rhs),rhsMax =  -9.63663566722062E-08  8.99490560644289E+00
 cg2d: Sum(rhs),rhsMax =  -9.64286215321408E-08  8.98910019830229E+00
 cg2d: Sum(rhs),rhsMax =  -9.64914832479735E-08  8.98325060608421E+00
 cg2d: Sum(rhs),rhsMax =  -9.65549631359863E-08  8.97735949860674E+00
 cg2d: Sum(rhs),rhsMax =  -9.66191180395981E-08  8.97142982445055E+00
 cg2d: Sum(rhs),rhsMax =  -9.66832942594920E-08  8.96546471599943E+00
 cg2d: Sum(rhs),rhsMax =  -9.67482520763951E-08  8.95946740124540E+00
 cg2d: Sum(rhs),rhsMax =  -9.68132098932983E-08  8.95344112713886E+00
 cg2d: Sum(rhs),rhsMax =  -9.68790274669118E-08  8.94738909112794E+00
 cg2d: Sum(rhs),rhsMax =  -9.69447810916790E-08  8.94131438207753E+00
 cg2d: Sum(rhs),rhsMax =  -9.70111884157632E-08  8.93521991327319E+00
 cg2d: Sum(rhs),rhsMax =  -9.70773115227530E-08  8.92910833888471E+00
 cg2d: Sum(rhs),rhsMax =  -9.71445075492738E-08  8.92298199747039E+00
 cg2d: Sum(rhs),rhsMax =  -9.72113554098541E-08  8.91684290726808E+00
 cg2d: Sum(rhs),rhsMax =  -9.72787574937684E-08  8.91069264633776E+00
 cg2d: Sum(rhs),rhsMax =  -9.73459535202892E-08  8.90453228797114E+00
 cg2d: Sum(rhs),rhsMax =  -9.74135971887335E-08  8.89836249714105E+00
 cg2d: Sum(rhs),rhsMax =  -9.74817027099562E-08  8.89218368115518E+00
 cg2d: Sum(rhs),rhsMax =  -9.75496519117769E-08  8.88599608996445E+00
 cg2d: Sum(rhs),rhsMax =  -9.76179350686834E-08  8.87979980032782E+00
 cg2d: Sum(rhs),rhsMax =  -9.76860476953334E-08  8.87359466021019E+00
 cg2d: Sum(rhs),rhsMax =  -9.77549490244201E-08  8.86737992136571E+00
 cg2d: Sum(rhs),rhsMax =  -9.78237792992331E-08  8.86115449881272E+00
 cg2d: Sum(rhs),rhsMax =  -9.78925882577641E-08  8.85491714939279E+00
 cg2d: Sum(rhs),rhsMax =  -9.79620651264668E-08  8.84866650814923E+00
 cg2d: Sum(rhs),rhsMax =  -9.80318830556826E-08  8.84239908862083E+00
 cg2d: Sum(rhs),rhsMax =  -9.81016583523342E-08  8.83611205511795E+00
 EXTERNAL_FIELDS_LOAD, it=   3600510 : Reading new data, i0,i1=    9   10 (prev=    8    9 )
 DIC_FIELDS_LOAD, it=   3600510 : Reading new data, i0,i1=    9   10 (prev=    8    9 )
 cg2d: Sum(rhs),rhsMax =  -9.81721868242857E-08  8.82980306034887E+00
 cg2d: Sum(rhs),rhsMax =  -9.82427721396562E-08  8.82347164349139E+00
 cg2d: Sum(rhs),rhsMax =  -9.83135990395567E-08  8.81711735596894E+00
 cg2d: Sum(rhs),rhsMax =  -9.83851720093298E-08  8.81074020360017E+00
 cg2d: Sum(rhs),rhsMax =  -9.84564962891454E-08  8.80434063629974E+00
 cg2d: Sum(rhs),rhsMax =  -9.85286376931072E-08  8.79791959804717E+00
 cg2d: Sum(rhs),rhsMax =  -9.86011414738641E-08  8.79147850051498E+00
 cg2d: Sum(rhs),rhsMax =  -9.86734960406466E-08  8.78501923806664E+00
 cg2d: Sum(rhs),rhsMax =  -9.87464900958912E-08  8.77854412431977E+00
 cg2d: Sum(rhs),rhsMax =  -9.88197470519481E-08  8.77205585109022E+00
 cg2d: Sum(rhs),rhsMax =  -9.88934729662105E-08  8.76555740298602E+00
 cg2d: Sum(rhs),rhsMax =  -9.89669146633787E-08  8.75905198910442E+00
 cg2d: Sum(rhs),rhsMax =  -9.90407258427695E-08  8.75254295465281E+00
 cg2d: Sum(rhs),rhsMax =  -9.91145014950234E-08  8.74603368964057E+00
 cg2d: Sum(rhs),rhsMax =  -9.91886466295000E-08  8.73952755244439E+00
 cg2d: Sum(rhs),rhsMax =  -9.92623157003436E-08  8.73302782624689E+00
 cg2d: Sum(rhs),rhsMax =  -9.93363400425551E-08  8.72653766294564E+00
 cg2d: Sum(rhs),rhsMax =  -9.94104141227581E-08  8.72006002219781E+00
 cg2d: Sum(rhs),rhsMax =  -9.94844668866790E-08  8.71359759621992E+00
 cg2d: Sum(rhs),rhsMax =  -9.95583775420528E-08  8.70715278372291E+00
 cg2d: Sum(rhs),rhsMax =  -9.96322597757171E-08  8.70072771032166E+00
 cg2d: Sum(rhs),rhsMax =  -9.97059714791249E-08  8.69432422374462E+00
 cg2d: Sum(rhs),rhsMax =  -9.97792923840279E-08  8.68794392220557E+00
 cg2d: Sum(rhs),rhsMax =  -9.98527127649140E-08  8.68159287495532E+00
 cg2d: Sum(rhs),rhsMax =  -9.99256144496030E-08  8.67527594836007E+00
 cg2d: Sum(rhs),rhsMax =  -9.99983740257449E-08  8.66899648662334E+00
 cg2d: Sum(rhs),rhsMax =  -1.00070764119664E-07  8.66275674813775E+00
 cg2d: Sum(rhs),rhsMax =  -1.00142791836788E-07  8.65655808426570E+00
 cg2d: Sum(rhs),rhsMax =  -1.00214123222031E-07  8.65040095427649E+00
 cg2d: Sum(rhs),rhsMax =  -1.00285419080137E-07  8.64428511771589E+00
 cg2d: Sum(rhs),rhsMax =  -1.00356203347474E-07  8.63820779072895E+00
 cg2d: Sum(rhs),rhsMax =  -1.00426881033400E-07  8.63216610266613E+00
 cg2d: Sum(rhs),rhsMax =  -1.00497182131676E-07  8.62615664857018E+00
 cg2d: Sum(rhs),rhsMax =  -1.00566929006618E-07  8.62017549344574E+00
 cg2d: Sum(rhs),rhsMax =  -1.00636839306389E-07  8.61421824973427E+00
 cg2d: Sum(rhs),rhsMax =  -1.00706515127058E-07  8.60828014305759E+00
 cg2d: Sum(rhs),rhsMax =  -1.00776318845419E-07  8.60235619466164E+00
 cg2d: Sum(rhs),rhsMax =  -1.00845916506387E-07  8.59644141396147E+00
 cg2d: Sum(rhs),rhsMax =  -1.00915485745645E-07  8.59053104903554E+00
 cg2d: Sum(rhs),rhsMax =  -1.00985261042297E-07  8.58462072248315E+00
 cg2d: Sum(rhs),rhsMax =  -1.01055491086299E-07  8.57870663714626E+00
 cg2d: Sum(rhs),rhsMax =  -1.01125422702353E-07  8.57278566865890E+00
 cg2d: Sum(rhs),rhsMax =  -1.01195716695202E-07  8.56685532083521E+00
 cg2d: Sum(rhs),rhsMax =  -1.01266216745444E-07  8.56091374139585E+00
 cg2d: Sum(rhs),rhsMax =  -1.01337192859319E-07  8.55495975914983E+00
 cg2d: Sum(rhs),rhsMax =  -1.01408346608878E-07  8.54899275863313E+00
 cg2d: Sum(rhs),rhsMax =  -1.01479535885574E-07  8.54301265247851E+00
 cg2d: Sum(rhs),rhsMax =  -1.01551435705005E-07  8.53701978569626E+00
 cg2d: Sum(rhs),rhsMax =  -1.01622724457684E-07  8.53101490472480E+00
 cg2d: Sum(rhs),rhsMax =  -1.01695292187287E-07  8.52499919193590E+00
 cg2d: Sum(rhs),rhsMax =  -1.01767554383514E-07  8.51897431341724E+00
 cg2d: Sum(rhs),rhsMax =  -1.01840242905382E-07  8.51294235247767E+00
 cg2d: Sum(rhs),rhsMax =  -1.01912846162122E-07  8.50690569200869E+00
 cg2d: Sum(rhs),rhsMax =  -1.01985413891725E-07  8.50087005576702E+00
 cg2d: Sum(rhs),rhsMax =  -1.02058450579534E-07  8.49484015017416E+00
 cg2d: Sum(rhs),rhsMax =  -1.02131188839394E-07  8.48882063673028E+00
 cg2d: Sum(rhs),rhsMax =  -1.02203856044980E-07  8.48281607441673E+00
 cg2d: Sum(rhs),rhsMax =  -1.02276672464541E-07  8.47683086082370E+00
 cg2d: Sum(rhs),rhsMax =  -1.02349595465512E-07  8.47086915096995E+00
 cg2d: Sum(rhs),rhsMax =  -1.02421360281824E-07  8.46493476809303E+00
 EXTERNAL_FIELDS_LOAD, it=   3600570 : Reading new data, i0,i1=   10   11 (prev=    9   10 )
 DIC_FIELDS_LOAD, it=   3600570 : Reading new data, i0,i1=   10   11 (prev=    9   10 )
 cg2d: Sum(rhs),rhsMax =  -1.02493515896640E-07  8.45903109783263E+00
 cg2d: Sum(rhs),rhsMax =  -1.02564975179575E-07  8.45319648993583E+00
 cg2d: Sum(rhs),rhsMax =  -1.02634501786270E-07  8.44745634270964E+00
 cg2d: Sum(rhs),rhsMax =  -1.02703893389844E-07  8.44183524325516E+00
 cg2d: Sum(rhs),rhsMax =  -1.02770819410125E-07  8.43635626330932E+00
 cg2d: Sum(rhs),rhsMax =  -1.02836231974379E-07  8.43104036727980E+00
 cg2d: Sum(rhs),rhsMax =  -1.02899214482477E-07  8.42590597581903E+00
 cg2d: Sum(rhs),rhsMax =  -1.02960150627496E-07  8.42096861540595E+00
 cg2d: Sum(rhs),rhsMax =  -1.03018727770632E-07  8.41624063283881E+00
 cg2d: Sum(rhs),rhsMax =  -1.03074462742825E-07  8.41173099284368E+00
 cg2d: Sum(rhs),rhsMax =  -1.03127582917750E-07  8.40744522364360E+00
 cg2d: Sum(rhs),rhsMax =  -1.03177704602331E-07  8.40338548638234E+00
 cg2d: Sum(rhs),rhsMax =  -1.03225289649345E-07  8.39955071057647E+00
 cg2d: Sum(rhs),rhsMax =  -1.03270444640202E-07  8.39593686353065E+00
 cg2d: Sum(rhs),rhsMax =  -1.03312800092681E-07  8.39253726007720E+00
 cg2d: Sum(rhs),rhsMax =  -1.03352554958747E-07  8.38934286490718E+00
 cg2d: Sum(rhs),rhsMax =  -1.03389886874083E-07  8.38634267692018E+00
 cg2d: Sum(rhs),rhsMax =  -1.03425186637196E-07  8.38352418466840E+00
 cg2d: Sum(rhs),rhsMax =  -1.03458575040349E-07  8.38087384792736E+00
 cg2d: Sum(rhs),rhsMax =  -1.03489654179612E-07  8.37837764295235E+00
 cg2d: Sum(rhs),rhsMax =  -1.03519347760539E-07  8.37602165023152E+00
 cg2d: Sum(rhs),rhsMax =  -1.03547364460610E-07  8.37379265495454E+00
 cg2d: Sum(rhs),rhsMax =  -1.03573896126363E-07  8.37167859305842E+00
 cg2d: Sum(rhs),rhsMax =  -1.03599155920620E-07  8.36966841617237E+00
 cg2d: Sum(rhs),rhsMax =  -1.03623357006200E-07  8.36775262363169E+00
 cg2d: Sum(rhs),rhsMax =  -1.03646584648232E-07  8.36592322530019E+00
 cg2d: Sum(rhs),rhsMax =  -1.03668426731929E-07  8.36417370361670E+00
 cg2d: Sum(rhs),rhsMax =  -1.03689806962848E-07  8.36249893566327E+00
 cg2d: Sum(rhs),rhsMax =  -1.03710164012227E-07  8.36089512198643E+00
 cg2d: Sum(rhs),rhsMax =  -1.03729064448999E-07  8.35935972193128E+00
 cg2d: Sum(rhs),rhsMax =  -1.03747986202052E-07  8.35789132052859E+00
 cg2d: Sum(rhs),rhsMax =  -1.03765373182796E-07  8.35648953984663E+00
 cg2d: Sum(rhs),rhsMax =  -1.03782369365035E-07  8.35515503666620E+00
 cg2d: Sum(rhs),rhsMax =  -1.03798733164240E-07  8.35388959337713E+00
 cg2d: Sum(rhs),rhsMax =  -1.03813491136862E-07  8.35269612989214E+00
 cg2d: Sum(rhs),rhsMax =  -1.03827638042731E-07  8.35157865319166E+00
 cg2d: Sum(rhs),rhsMax =  -1.03841280463257E-07  8.35054220321588E+00
 cg2d: Sum(rhs),rhsMax =  -1.03853331268056E-07  8.34959282244478E+00
 cg2d: Sum(rhs),rhsMax =  -1.03864024936229E-07  8.34873757212784E+00
 cg2d: Sum(rhs),rhsMax =  -1.03873794898846E-07  8.34798443944571E+00
 cg2d: Sum(rhs),rhsMax =  -1.03881951929452E-07  8.34734205444848E+00
 cg2d: Sum(rhs),rhsMax =  -1.03888730507151E-07  8.34681927427749E+00
 cg2d: Sum(rhs),rhsMax =  -1.03893782466002E-07  8.34642479662444E+00
 cg2d: Sum(rhs),rhsMax =  -1.03896695691219E-07  8.34616690162161E+00
 cg2d: Sum(rhs),rhsMax =  -1.03898251779810E-07  8.34605328416144E+00
 cg2d: Sum(rhs),rhsMax =  -1.03897747294468E-07  8.34609086201575E+00
 cg2d: Sum(rhs),rhsMax =  -1.03895416714295E-07  8.34628560159372E+00
 cg2d: Sum(rhs),rhsMax =  -1.03891132141598E-07  8.34664238294981E+00
 cg2d: Sum(rhs),rhsMax =  -1.03884730151549E-07  8.34716488141953E+00
 cg2d: Sum(rhs),rhsMax =  -1.03876232060429E-07  8.34785544920597E+00
 cg2d: Sum(rhs),rhsMax =  -1.03865339440290E-07  8.34871504733891E+00
 cg2d: Sum(rhs),rhsMax =  -1.03852393351644E-07  8.34974320296400E+00
 cg2d: Sum(rhs),rhsMax =  -1.03837578535604E-07  8.35093803633076E+00
 cg2d: Sum(rhs),rhsMax =  -1.03820866570459E-07  8.35229628921908E+00
 cg2d: Sum(rhs),rhsMax =  -1.03801575335183E-07  8.35381348895399E+00
 cg2d: Sum(rhs),rhsMax =  -1.03780770643880E-07  8.35548405560547E+00
 cg2d: Sum(rhs),rhsMax =  -1.03758168279455E-07  8.35730145035772E+00
 cg2d: Sum(rhs),rhsMax =  -1.03734052459004E-07  8.35925834161856E+00
 cg2d: Sum(rhs),rhsMax =  -1.03707641585515E-07  8.36134677020027E+00
 cg2d: Sum(rhs),rhsMax =  -1.03680264373907E-07  8.36355833544679E+00
 EXTERNAL_FIELDS_LOAD, it=   3600630 : Reading new data, i0,i1=   11   12 (prev=   10   11 )
 DIC_FIELDS_LOAD, it=   3600630 : Reading new data, i0,i1=   11   12 (prev=   10   11 )
 cg2d: Sum(rhs),rhsMax =  -1.03651167648877E-07  8.36588437297216E+00
 cg2d: Sum(rhs),rhsMax =  -1.03620983793462E-07  8.36829873825493E+00
 cg2d: Sum(rhs),rhsMax =  -1.03590167555012E-07  8.37078098256463E+00
 cg2d: Sum(rhs),rhsMax =  -1.03558832620365E-07  8.37331076990736E+00
 cg2d: Sum(rhs),rhsMax =  -1.03526986094948E-07  8.37586828475342E+00
 cg2d: Sum(rhs),rhsMax =  -1.03494969039275E-07  8.37843651347270E+00
 cg2d: Sum(rhs),rhsMax =  -1.03462959089029E-07  8.38100058596186E+00
 cg2d: Sum(rhs),rhsMax =  -1.03431759157502E-07  8.38354800119352E+00
 cg2d: Sum(rhs),rhsMax =  -1.03400431328282E-07  8.38606907281455E+00
 cg2d: Sum(rhs),rhsMax =  -1.03369536930131E-07  8.38855705740912E+00
 cg2d: Sum(rhs),rhsMax =  -1.03339182544460E-07  8.39100818777902E+00
 cg2d: Sum(rhs),rhsMax =  -1.03309091059600E-07  8.39342162927294E+00
 cg2d: Sum(rhs),rhsMax =  -1.03279326424399E-07  8.39579937673915E+00
 cg2d: Sum(rhs),rhsMax =  -1.03250158645096E-07  8.39814606298476E+00
 cg2d: Sum(rhs),rhsMax =  -1.03221587721691E-07  8.40046867037939E+00
 cg2d: Sum(rhs),rhsMax =  -1.03192640210636E-07  8.40277617859981E+00
 cg2d: Sum(rhs),rhsMax =  -1.03164317977189E-07  8.40507915533000E+00
 cg2d: Sum(rhs),rhsMax =  -1.03135583628955E-07  8.40738929078001E+00
 cg2d: Sum(rhs),rhsMax =  -1.03106465587643E-07  8.40971893982490E+00
 cg2d: Sum(rhs),rhsMax =  -1.03077603341717E-07  8.41208069021930E+00
 cg2d: Sum(rhs),rhsMax =  -1.03047760546815E-07  8.41448664736628E+00
 cg2d: Sum(rhs),rhsMax =  -1.03017328001442E-07  8.41694808963461E+00
 cg2d: Sum(rhs),rhsMax =  -1.02985850958248E-07  8.41947641344255E+00
 cg2d: Sum(rhs),rhsMax =  -1.02953762848301E-07  8.42209465677943E+00
 cg2d: Sum(rhs),rhsMax =  -1.02920779454507E-07  8.42481840011152E+00
 cg2d: Sum(rhs),rhsMax =  -1.02885756803062E-07  8.42766143831664E+00
 cg2d: Sum(rhs),rhsMax =  -1.02849760708068E-07  8.43063562227923E+00
 cg2d: Sum(rhs),rhsMax =  -1.02811505087175E-07  8.43375048923612E+00
 cg2d: Sum(rhs),rhsMax =  -1.02771743115682E-07  8.43701312183894E+00
 cg2d: Sum(rhs),rhsMax =  -1.02730268736195E-07  8.44042805498092E+00
 cg2d: Sum(rhs),rhsMax =  -1.02686364300553E-07  8.44399728026233E+00
 cg2d: Sum(rhs),rhsMax =  -1.02641237731405E-07  8.44772028674299E+00
 cg2d: Sum(rhs),rhsMax =  -1.02594057693750E-07  8.45159419183708E+00
 cg2d: Sum(rhs),rhsMax =  -1.02545079982974E-07  8.45561389463918E+00
 cg2d: Sum(rhs),rhsMax =  -1.02494418285914E-07  8.45977229544668E+00
 cg2d: Sum(rhs),rhsMax =  -1.02442626825905E-07  8.46406043486096E+00
 cg2d: Sum(rhs),rhsMax =  -1.02389186906748E-07  8.46846786249842E+00
 cg2d: Sum(rhs),rhsMax =  -1.02334411167249E-07  8.47298294092153E+00
 cg2d: Sum(rhs),rhsMax =  -1.02278569613645E-07  8.47759310010859E+00
 cg2d: Sum(rhs),rhsMax =  -1.02221783038203E-07  8.48228511495217E+00
 cg2d: Sum(rhs),rhsMax =  -1.02164435134000E-07  8.48704540520819E+00
 cg2d: Sum(rhs),rhsMax =  -1.02106639587873E-07  8.49186038102640E+00
 cg2d: Sum(rhs),rhsMax =  -1.02048161920720E-07  8.49671683330553E+00
 cg2d: Sum(rhs),rhsMax =  -1.01989222400789E-07  8.50160229731839E+00
 cg2d: Sum(rhs),rhsMax =  -1.01930119456028E-07  8.50650541756349E+00
 cg2d: Sum(rhs),rhsMax =  -1.01871734159431E-07  8.51141606286167E+00
 cg2d: Sum(rhs),rhsMax =  -1.01813114383731E-07  8.51632550458549E+00
 cg2d: Sum(rhs),rhsMax =  -1.01754352499484E-07  8.52122658728227E+00
 cg2d: Sum(rhs),rhsMax =  -1.01695938781177E-07  8.52611387363114E+00
 cg2d: Sum(rhs),rhsMax =  -1.01637908755947E-07  8.53098375482528E+00
 cg2d: Sum(rhs),rhsMax =  -1.01580091893538E-07  8.53583450654913E+00
 cg2d: Sum(rhs),rhsMax =  -1.01522516615660E-07  8.54066629803099E+00
 cg2d: Sum(rhs),rhsMax =  -1.01465325030858E-07  8.54548114840508E+00
 cg2d: Sum(rhs),rhsMax =  -1.01408510033707E-07  8.55028281355603E+00
 cg2d: Sum(rhs),rhsMax =  -1.01351844250530E-07  8.55507663782142E+00
 cg2d: Sum(rhs),rhsMax =  -1.01294901355686E-07  8.55986938569464E+00
 cg2d: Sum(rhs),rhsMax =  -1.01238242677937E-07  8.56466907941720E+00
 cg2d: Sum(rhs),rhsMax =  -1.01181711897880E-07  8.56948481849350E+00
 cg2d: Sum(rhs),rhsMax =  -1.01124427942523E-07  8.57432655386490E+00
 cg2d: Sum(rhs),rhsMax =  -1.01066994773191E-07  8.57920482306538E+00
 EXTERNAL_FIELDS_LOAD, it=   3600690 : Reading new data, i0,i1=   12    1 (prev=   11   12 )
 DIC_FIELDS_LOAD, it=   3600690 : Reading new data, i0,i1=   12    1 (prev=   11   12 )
 cg2d: Sum(rhs),rhsMax =  -1.01009099751082E-07  8.58413045456863E+00
 cg2d: Sum(rhs),rhsMax =  -1.00950970249869E-07  8.58908772075261E+00
 cg2d: Sum(rhs),rhsMax =  -1.00892201260194E-07  8.59407113784658E+00
 cg2d: Sum(rhs),rhsMax =  -1.00833979388426E-07  8.59907533504329E+00
 cg2d: Sum(rhs),rhsMax =  -1.00775366718153E-07  8.60409527812640E+00
 cg2d: Sum(rhs),rhsMax =  -1.00716533779632E-07  8.60912639608676E+00
 cg2d: Sum(rhs),rhsMax =  -1.00657807422522E-07  8.61416467727663E+00
 cg2d: Sum(rhs),rhsMax =  -1.00599194752249E-07  8.61920670304104E+00
 cg2d: Sum(rhs),rhsMax =  -1.00540219705181E-07  8.62424959025954E+00
 cg2d: Sum(rhs),rhsMax =  -1.00481713616318E-07  8.62929084710763E+00
 cg2d: Sum(rhs),rhsMax =  -1.00423278581729E-07  8.63432823431656E+00
 cg2d: Sum(rhs),rhsMax =  -1.00365085131671E-07  8.63935967110789E+00
 cg2d: Sum(rhs),rhsMax =  -1.00306984052168E-07  8.64438326330631E+00
 cg2d: Sum(rhs),rhsMax =  -1.00248698231553E-07  8.64939736363611E+00
 cg2d: Sum(rhs),rhsMax =  -1.00191144269957E-07  8.65440069908248E+00
 cg2d: Sum(rhs),rhsMax =  -1.00133568992078E-07  8.65939260929048E+00
 cg2d: Sum(rhs),rhsMax =  -1.00076100295610E-07  8.66437312037654E+00
 cg2d: Sum(rhs),rhsMax =  -1.00019036608501E-07  8.66934290835576E+00
 cg2d: Sum(rhs),rhsMax =  -9.99617597585711E-08  8.67430225124478E+00
 cg2d: Sum(rhs),rhsMax =  -9.99047102823170E-08  8.67925494682890E+00
 cg2d: Sum(rhs),rhsMax =  -9.98482363456787E-08  8.68420608713978E+00
 cg2d: Sum(rhs),rhsMax =  -9.97913716105359E-08  8.68916081980566E+00
 cg2d: Sum(rhs),rhsMax =  -9.97343434505638E-08  8.69412416784580E+00
 cg2d: Sum(rhs),rhsMax =  -9.96773295014464E-08  8.69910085245627E+00
 cg2d: Sum(rhs),rhsMax =  -9.96202871306195E-08  8.70409517445086E+00
 cg2d: Sum(rhs),rhsMax =  -9.95629250155616E-08  8.70911095741398E+00
 cg2d: Sum(rhs),rhsMax =  -9.95059110664442E-08  8.71415148969223E+00
 cg2d: Sum(rhs),rhsMax =  -9.94480160443345E-08  8.71921930590513E+00
 cg2d: Sum(rhs),rhsMax =  -9.93902702361993E-08  8.72431607432102E+00
 cg2d: Sum(rhs),rhsMax =  -9.93317215147727E-08  8.72944261226047E+00
 cg2d: Sum(rhs),rhsMax =  -9.92735280647139E-08  8.73459893266904E+00
 cg2d: Sum(rhs),rhsMax =  -9.92147448641845E-08  8.73978430818157E+00
 cg2d: Sum(rhs),rhsMax =  -9.91560966667748E-08  8.74499735837366E+00
 cg2d: Sum(rhs),rhsMax =  -9.90966526615011E-08  8.75023614706347E+00
 cg2d: Sum(rhs),rhsMax =  -9.90366970654577E-08  8.75549829188909E+00
 cg2d: Sum(rhs),rhsMax =  -9.89772743764661E-08  8.76078107848702E+00
 cg2d: Sum(rhs),rhsMax =  -9.89177024735000E-08  8.76608155580086E+00
 cg2d: Sum(rhs),rhsMax =  -9.88579742511320E-08  8.77139664107964E+00
 cg2d: Sum(rhs),rhsMax =  -9.87977060162848E-08  8.77672320795606E+00
 cg2d: Sum(rhs),rhsMax =  -9.87382264838743E-08  8.78205816635757E+00
(PID.TID 0000.0001) Did not write pickup because writePickupAtEnd = FALSE
 DIC_SURFFORCING_INIT, it=   3600000 : Reading new data, i0,i1=   12    1
 QQ: pCO2 approximation method
 QQ first guess pH 8.2869849781645275,  7.129213793781922,  34.1535348423009,  2.0282,  5.43799999999999991E-4,  8.08490416966378689E-3,  2.3086000000000002
(PID.TID 0000.0001) // =======================================================
(PID.TID 0000.0001) // Model current state
(PID.TID 0000.0001) // =======================================================
(PID.TID 0000.0001) 
 EXTERNAL_FIELDS_LOAD, it=   3600000 : Reading new data, i0,i1=   12    1 (prev=   12    0 )
 DIC_FIELDS_LOAD, it=   3600000 : Reading new data, i0,i1=   12    1 (prev=   12    0 )
 cg2d: Sum(rhs),rhsMax =  -9.92433868418630E-08  8.73439671821315E+00
 cg2d: Sum(rhs),rhsMax =  -9.91844260056496E-08  8.73957958587058E+00
 cg2d: Sum(rhs),rhsMax =  -9.91252449011881E-08  8.74478969091806E+00
 cg2d: Sum(rhs),rhsMax =  -9.90665185440776E-08  8.75002495477880E+00
 cg2d: Sum(rhs),rhsMax =  -9.90068542705558E-08  8.75528284057604E+00
 cg2d: Sum(rhs),rhsMax =  -9.89473534218632E-08  8.76056047500076E+00
 cg2d: Sum(rhs),rhsMax =  -9.88878241514612E-08  8.76585475900637E+00
 cg2d: Sum(rhs),rhsMax =  -9.88279893476829E-08  8.77116249138180E+00
 cg2d: Sum(rhs),rhsMax =  -9.87682469144602E-08  8.77648047471154E+00
 cg2d: Sum(rhs),rhsMax =  -9.87087602766223E-08  8.78180560756084E+00
 cg2d: Sum(rhs),rhsMax =  -9.86489112619893E-08  8.78713494778165E+00
 cg2d: Sum(rhs),rhsMax =  -9.85891404070571E-08  8.79246575399440E+00
 cg2d: Sum(rhs),rhsMax =  -9.85293340249882E-08  8.79779549299699E+00
 cg2d: Sum(rhs),rhsMax =  -9.84700747608258E-08  8.80312181092759E+00
 cg2d: Sum(rhs),rhsMax =  -9.84108581292276E-08  8.80844249631459E+00
 cg2d: Sum(rhs),rhsMax =  -9.83516486030567E-08  8.81375547068360E+00
 cg2d: Sum(rhs),rhsMax =  -9.82926522397065E-08  8.81905885446822E+00
 cg2d: Sum(rhs),rhsMax =  -9.82337553523394E-08  8.82435106608147E+00
 cg2d: Sum(rhs),rhsMax =  -9.81751568929212E-08  8.82963093738125E+00
 cg2d: Sum(rhs),rhsMax =  -9.81166650149135E-08  8.83489782452132E+00
 cg2d: Sum(rhs),rhsMax =  -9.80585213028462E-08  8.84015168145881E+00
 cg2d: Sum(rhs),rhsMax =  -9.80007470730015E-08  8.84539306572338E+00
 cg2d: Sum(rhs),rhsMax =  -9.79429586323022E-08  8.85062306296846E+00
 cg2d: Sum(rhs),rhsMax =  -9.78853904598509E-08  8.85584316140559E+00
 cg2d: Sum(rhs),rhsMax =  -9.78280425556477E-08  8.86105508303604E+00
 cg2d: Sum(rhs),rhsMax =  -9.77709291305473E-08  8.86626061391844E+00
 cg2d: Sum(rhs),rhsMax =  -9.77132472712583E-08  8.87146147123075E+00
 cg2d: Sum(rhs),rhsMax =  -9.76563327981239E-08  8.87665923110881E+00
 cg2d: Sum(rhs),rhsMax =  -9.75990843699037E-08  8.88185530584736E+00
 cg2d: Sum(rhs),rhsMax =  -9.75420704207863E-08  8.88705095973601E+00
 EXTERNAL_FIELDS_LOAD, it=   3600030 : Reading new data, i0,i1=    1    2 (prev=   12    1 )
 DIC_FIELDS_LOAD, it=   3600030 : Reading new data, i0,i1=    1    2 (prev=   12    1 )
 cg2d: Sum(rhs),rhsMax =  -9.74853406887632E-08  8.89224735691429E+00
 cg2d: Sum(rhs),rhsMax =  -9.74287814869967E-08  8.89742706375180E+00
 cg2d: Sum(rhs),rhsMax =  -9.73723857100595E-08  8.90258000132907E+00
 cg2d: Sum(rhs),rhsMax =  -9.73164659967551E-08  8.90769672951691E+00
 cg2d: Sum(rhs),rhsMax =  -9.72612284044772E-08  8.91276878246959E+00
 cg2d: Sum(rhs),rhsMax =  -9.72070637317302E-08  8.91778889429735E+00
 cg2d: Sum(rhs),rhsMax =  -9.71530482729577E-08  8.92275113682099E+00
 cg2d: Sum(rhs),rhsMax =  -9.70993241367069E-08  8.92765100404361E+00
 cg2d: Sum(rhs),rhsMax =  -9.70471916161841E-08  8.93248545016401E+00
 cg2d: Sum(rhs),rhsMax =  -9.69955280538670E-08  8.93725287491615E+00
 cg2d: Sum(rhs),rhsMax =  -9.69441273923621E-08  8.94195305183593E+00
 cg2d: Sum(rhs),rhsMax =  -9.68941833434656E-08  8.94658701582531E+00
 cg2d: Sum(rhs),rhsMax =  -9.68450208915783E-08  8.95115692214719E+00
 cg2d: Sum(rhs),rhsMax =  -9.67962705544778E-08  8.95566589123099E+00
 cg2d: Sum(rhs),rhsMax =  -9.67482165492584E-08  8.96011786358850E+00
 cg2d: Sum(rhs),rhsMax =  -9.67008020325011E-08  8.96451747891563E+00
 cg2d: Sum(rhs),rhsMax =  -9.66539346336504E-08  8.96886998187158E+00
 cg2d: Sum(rhs),rhsMax =  -9.66078843589457E-08  8.97318115409823E+00
 cg2d: Sum(rhs),rhsMax =  -9.65621254067628E-08  8.97745726495199E+00
 cg2d: Sum(rhs),rhsMax =  -9.65159685506478E-08  8.98170502198163E+00
 cg2d: Sum(rhs),rhsMax =  -9.64709272466280E-08  8.98593151889555E+00
 cg2d: Sum(rhs),rhsMax =  -9.64258006774799E-08  8.99014423145949E+00
 cg2d: Sum(rhs),rhsMax =  -9.63806954246138E-08  8.99435085408351E+00
 cg2d: Sum(rhs),rhsMax =  -9.63354978011921E-08  8.99855914272681E+00
 cg2d: Sum(rhs),rhsMax =  -9.62904493917449E-08  9.00277662786875E+00
 cg2d: Sum(rhs),rhsMax =  -9.62449746566563E-08  9.00700998220796E+00
 cg2d: Sum(rhs),rhsMax =  -9.61997557169525E-08  9.01126574761483E+00
 cg2d: Sum(rhs),rhsMax =  -9.61540180810516E-08  9.01555039729210E+00
 cg2d: Sum(rhs),rhsMax =  -9.61077120109621E-08  9.01986971435378E+00
 cg2d: Sum(rhs),rhsMax =  -9.60613775191632E-08  9.02422880815445E+00
 cg2d: Sum(rhs),rhsMax =  -9.60143182737738E-08  9.02863205182447E+00
 cg2d: Sum(rhs),rhsMax =  -9.59668398081703E-08  9.03308295193821E+00
 cg2d: Sum(rhs),rhsMax =  -9.59189492277801E-08  9.03758400719746E+00
 cg2d: Sum(rhs),rhsMax =  -9.58706323217484E-08  9.04213663854453E+00
 cg2d: Sum(rhs),rhsMax =  -9.58215622404168E-08  9.04674109185253E+00
 cg2d: Sum(rhs),rhsMax =  -9.57721724148541E-08  9.05139640217902E+00
 cg2d: Sum(rhs),rhsMax =  -9.57223775799321E-08  9.05610040614876E+00
 cg2d: Sum(rhs),rhsMax =  -9.56718224642827E-08  9.06084979109159E+00
 cg2d: Sum(rhs),rhsMax =  -9.56211039238042E-08  9.06564017672268E+00
 cg2d: Sum(rhs),rhsMax =  -9.55700798499493E-08  9.07046622792088E+00
 cg2d: Sum(rhs),rhsMax =  -9.55189918272481E-08  9.07532179655311E+00
 cg2d: Sum(rhs),rhsMax =  -9.54672145780933E-08  9.08020008054443E+00
 cg2d: Sum(rhs),rhsMax =  -9.54156860188959E-08  9.08509379067778E+00
 cg2d: Sum(rhs),rhsMax =  -9.53640864054250E-08  9.08999532389517E+00
 cg2d: Sum(rhs),rhsMax =  -9.53120391500306E-08  9.09489685062687E+00
 cg2d: Sum(rhs),rhsMax =  -9.52604963799786E-08  9.09979078670731E+00
 cg2d: Sum(rhs),rhsMax =  -9.52091738781746E-08  9.10466952325132E+00
 cg2d: Sum(rhs),rhsMax =  -9.51581995423112E-08  9.10952586151125E+00
 cg2d: Sum(rhs),rhsMax =  -9.51075378452515E-08  9.11435305322486E+00
 cg2d: Sum(rhs),rhsMax =  -9.50568974644739E-08  9.11914489544444E+00
 cg2d: Sum(rhs),rhsMax =  -9.50070173644235E-08  9.12389583482653E+00
 cg2d: Sum(rhs),rhsMax =  -9.49582670273230E-08  9.12860106773695E+00
 cg2d: Sum(rhs),rhsMax =  -9.49094669522310E-08  9.13325671324743E+00
 cg2d: Sum(rhs),rhsMax =  -9.48612637330370E-08  9.13785989332165E+00
 cg2d: Sum(rhs),rhsMax =  -9.48139060596986E-08  9.14240888612431E+00
 cg2d: Sum(rhs),rhsMax =  -9.47671381368309E-08  9.14690322805975E+00
 cg2d: Sum(rhs),rhsMax =  -9.47210025969980E-08  9.15134376400067E+00
 cg2d: Sum(rhs),rhsMax =  -9.46753857533622E-08  9.15573262291172E+00
 cg2d: Sum(rhs),rhsMax =  -9.46305078741716E-08  9.16007311317651E+00
 cg2d: Sum(rhs),rhsMax =  -9.45855020972886E-08  9.16436954661381E+00
 EXTERNAL_FIELDS_LOAD, it=   3600090 : Reading new data, i0,i1=    2    3 (prev=    1    2 )
 DIC_FIELDS_LOAD, it=   3600090 : Reading new data, i0,i1=    2    3 (prev=    1    2 )
 cg2d: Sum(rhs),rhsMax =  -9.45416047670733E-08  9.16862700792054E+00
 cg2d: Sum(rhs),rhsMax =  -9.44977784911316E-08  9.17286965792043E+00
 cg2d: Sum(rhs),rhsMax =  -9.44538882663437E-08  9.17711460232796E+00
 cg2d: Sum(rhs),rhsMax =  -9.44097777733077E-08  9.18137827264839E+00
 cg2d: Sum(rhs),rhsMax =  -9.43655606988614E-08  9.18567586102450E+00
 cg2d: Sum(rhs),rhsMax =  -9.43208533499273E-08  9.19002086507332E+00
 cg2d: Sum(rhs),rhsMax =  -9.42755065125311E-08  9.19442473147613E+00
 cg2d: Sum(rhs),rhsMax =  -9.42294988703907E-08  9.19889660310093E+00
 cg2d: Sum(rhs),rhsMax =  -9.41831217460276E-08  9.20344317156002E+00
 cg2d: Sum(rhs),rhsMax =  -9.41357711781166E-08  9.20806863385625E+00
 cg2d: Sum(rhs),rhsMax =  -9.40875679589226E-08  9.21277472508850E+00
 cg2d: Sum(rhs),rhsMax =  -9.40387323566938E-08  9.21756082935263E+00
 cg2d: Sum(rhs),rhsMax =  -9.39891506845925E-08  9.22242415169496E+00
 cg2d: Sum(rhs),rhsMax =  -9.39387589937724E-08  9.22735992735964E+00
 cg2d: Sum(rhs),rhsMax =  -9.38874578082505E-08  9.23236166048178E+00
 cg2d: Sum(rhs),rhsMax =  -9.38360713576003E-08  9.23742136926884E+00
 cg2d: Sum(rhs),rhsMax =  -9.37847204340869E-08  9.24252982829311E+00
 cg2d: Sum(rhs),rhsMax =  -9.37326518624104E-08  9.24767682825910E+00
 cg2d: Sum(rhs),rhsMax =  -9.36799651185538E-08  9.25285135651627E+00
 cg2d: Sum(rhs),rhsMax =  -9.36278468088858E-08  9.25804181556396E+00
 cg2d: Sum(rhs),rhsMax =  -9.35753803332773E-08  9.26323624437734E+00
 cg2d: Sum(rhs),rhsMax =  -9.35233543941649E-08  9.26842252954541E+00
 cg2d: Sum(rhs),rhsMax =  -9.34712076627875E-08  9.27358855590945E+00
 cg2d: Sum(rhs),rhsMax =  -9.34198851609835E-08  9.27872221865362E+00
 cg2d: Sum(rhs),rhsMax =  -9.33687331894362E-08  9.28381269175841E+00
 cg2d: Sum(rhs),rhsMax =  -9.33183130769066E-08  9.28884990364347E+00
 cg2d: Sum(rhs),rhsMax =  -9.32684542931383E-08  9.29382460831193E+00
 cg2d: Sum(rhs),rhsMax =  -9.32194410552256E-08  9.29872876125425E+00
 cg2d: Sum(rhs),rhsMax =  -9.31711383600486E-08  9.30355578941157E+00
 cg2d: Sum(rhs),rhsMax =  -9.31240364820951E-08  9.30830071441787E+00
 cg2d: Sum(rhs),rhsMax =  -9.30773893514925E-08  9.31296016039586E+00
 cg2d: Sum(rhs),rhsMax =  -9.30318719838397E-08  9.31753230345820E+00
 cg2d: Sum(rhs),rhsMax =  -9.29872783217434E-08  9.32201677457960E+00
 cg2d: Sum(rhs),rhsMax =  -9.29437931063148E-08  9.32641453687162E+00
 cg2d: Sum(rhs),rhsMax =  -9.29007910599466E-08  9.33072777407330E+00
 cg2d: Sum(rhs),rhsMax =  -9.28590253579387E-08  9.33495977832897E+00
 cg2d: Sum(rhs),rhsMax =  -9.28177001924269E-08  9.33911483571782E+00
 cg2d: Sum(rhs),rhsMax =  -9.27770358316593E-08  9.34319809772528E+00
 cg2d: Sum(rhs),rhsMax =  -9.27373591252945E-08  9.34721542637213E+00
 cg2d: Sum(rhs),rhsMax =  -9.26982295368362E-08  9.35117321728378E+00
 cg2d: Sum(rhs),rhsMax =  -9.26594978523099E-08  9.35507820898651E+00
 cg2d: Sum(rhs),rhsMax =  -9.26212777585533E-08  9.35893728101038E+00
 cg2d: Sum(rhs),rhsMax =  -9.25836900478316E-08  9.36275724876052E+00
 cg2d: Sum(rhs),rhsMax =  -9.25467347201447E-08  9.36654466497940E+00
 cg2d: Sum(rhs),rhsMax =  -9.25093388559617E-08  9.37030563739009E+00
 cg2d: Sum(rhs),rhsMax =  -9.24723693174201E-08  9.37404566529748E+00
 cg2d: Sum(rhs),rhsMax =  -9.24358261045199E-08  9.37776950669782E+00
 cg2d: Sum(rhs),rhsMax =  -9.23998015878169E-08  9.38148107939576E+00
 cg2d: Sum(rhs),rhsMax =  -9.23633649563271E-08  9.38518340080342E+00
 cg2d: Sum(rhs),rhsMax =  -9.23271628039402E-08  9.38887856431341E+00
 cg2d: Sum(rhs),rhsMax =  -9.22907545941598E-08  9.39256775253961E+00
 cg2d: Sum(rhs),rhsMax =  -9.22549361348501E-08  9.39625127829926E+00
 cg2d: Sum(rhs),rhsMax =  -9.22186487173349E-08  9.39992865313115E+00
 cg2d: Sum(rhs),rhsMax =  -9.21831713185384E-08  9.40359867110262E+00
 cg2d: Sum(rhs),rhsMax =  -9.21473457538013E-08  9.40725949891390E+00
 cg2d: Sum(rhs),rhsMax =  -9.21119038821416E-08  9.41090875978471E+00
 cg2d: Sum(rhs),rhsMax =  -9.20763412182168E-08  9.41454361858659E+00
 cg2d: Sum(rhs),rhsMax =  -9.20410343496769E-08  9.41816086827301E+00
 cg2d: Sum(rhs),rhsMax =  -9.20060685416502E-08  9.42175701532902E+00
 cg2d: Sum(rhs),rhsMax =  -9.19711879987517E-08  9.42532836100955E+00
 EXTERNAL_FIELDS_LOAD, it=   3600150 : Reading new data, i0,i1=    3    4 (prev=    2    3 )
 DIC_FIELDS_LOAD, it=   3600150 : Reading new data, i0,i1=    3    4 (prev=    2    3 )
 cg2d: Sum(rhs),rhsMax =  -9.19367622032041E-08  9.42887108055882E+00
 cg2d: Sum(rhs),rhsMax =  -9.19030327395376E-08  9.43235832256638E+00
 cg2d: Sum(rhs),rhsMax =  -9.18696727580937E-08  9.43577294710938E+00
 cg2d: Sum(rhs),rhsMax =  -9.18375349101552E-08  9.43909901719340E+00
 cg2d: Sum(rhs),rhsMax =  -9.18056457521743E-08  9.44232226351574E+00
 cg2d: Sum(rhs),rhsMax =  -9.17754618967592E-08  9.44543045713848E+00
 cg2d: Sum(rhs),rhsMax =  -9.17468696570722E-08  9.44841368652191E+00
 cg2d: Sum(rhs),rhsMax =  -9.17188671678559E-08  9.45126453300903E+00
 cg2d: Sum(rhs),rhsMax =  -9.16929749905648E-08  9.45397814472091E+00
 cg2d: Sum(rhs),rhsMax =  -9.16680278351123E-08  9.45655223330268E+00
 cg2d: Sum(rhs),rhsMax =  -9.16445941356869E-08  9.45898700078271E+00
 cg2d: Sum(rhs),rhsMax =  -9.16223754643397E-08  9.46128500172268E+00
 cg2d: Sum(rhs),rhsMax =  -9.16011231311131E-08  9.46345095767279E+00
 cg2d: Sum(rhs),rhsMax =  -9.15811568802383E-08  9.46549153513779E+00
 cg2d: Sum(rhs),rhsMax =  -9.15625619768434E-08  9.46741508859273E+00
 cg2d: Sum(rhs),rhsMax =  -9.15451252581079E-08  9.46923137659912E+00
 cg2d: Sum(rhs),rhsMax =  -9.15285980340741E-08  9.47095124324780E+00
 cg2d: Sum(rhs),rhsMax =  -9.15126108225195E-08  9.47258633929544E+00
 cg2d: Sum(rhs),rhsMax =  -9.14974762622478E-08  9.47414881667898E+00
 cg2d: Sum(rhs),rhsMax =  -9.14831588261222E-08  9.47565102854520E+00
 cg2d: Sum(rhs),rhsMax =  -9.14691185016636E-08  9.47710524161440E+00
 cg2d: Sum(rhs),rhsMax =  -9.14552913400257E-08  9.47852337330871E+00
 cg2d: Sum(rhs),rhsMax =  -9.14417910280463E-08  9.47991675839448E+00
 cg2d: Sum(rhs),rhsMax =  -9.14288023068366E-08  9.48129594936036E+00
 cg2d: Sum(rhs),rhsMax =  -9.14153162057119E-08  9.48267055268677E+00
 cg2d: Sum(rhs),rhsMax =  -9.14016951014673E-08  9.48404910672501E+00
 cg2d: Sum(rhs),rhsMax =  -9.13883866360266E-08  9.48543898881096E+00
 cg2d: Sum(rhs),rhsMax =  -9.13749147457565E-08  9.48684634838855E+00
 cg2d: Sum(rhs),rhsMax =  -9.13611231112554E-08  9.48827608016959E+00
 cg2d: Sum(rhs),rhsMax =  -9.13465854068818E-08  9.48973182637241E+00
 cg2d: Sum(rhs),rhsMax =  -9.13324456064402E-08  9.49121598932757E+00
 cg2d: Sum(rhs),rhsMax =  -9.13176805283911E-08  9.49272976482376E+00
 cg2d: Sum(rhs),rhsMax =  -9.13029793991882E-08  9.49427318407705E+00
 cg2d: Sum(rhs),rhsMax =  -9.12876600978052E-08  9.49584517202971E+00
 cg2d: Sum(rhs),rhsMax =  -9.12722768475760E-08  9.49744362566448E+00
 cg2d: Sum(rhs),rhsMax =  -9.12563962174318E-08  9.49906550905340E+00
 cg2d: Sum(rhs),rhsMax =  -9.12406292741252E-08  9.50070696299551E+00
 cg2d: Sum(rhs),rhsMax =  -9.12245567974423E-08  9.50236342680402E+00
 cg2d: Sum(rhs),rhsMax =  -9.12086122184519E-08  9.50402976802920E+00
 cg2d: Sum(rhs),rhsMax =  -9.11920636781360E-08  9.50570042893596E+00
 cg2d: Sum(rhs),rhsMax =  -9.11760835720088E-08  9.50736956748404E+00
 cg2d: Sum(rhs),rhsMax =  -9.11599897790438E-08  9.50903122489705E+00
 cg2d: Sum(rhs),rhsMax =  -9.11439812512072E-08  9.51067944299842E+00
 cg2d: Sum(rhs),rhsMax =  -9.11286619498242E-08  9.51230836255520E+00
 cg2d: Sum(rhs),rhsMax =  -9.11128452685261E-08  9.51391232343393E+00
 cg2d: Sum(rhs),rhsMax =  -9.10978172896648E-08  9.51548598638282E+00
 cg2d: Sum(rhs),rhsMax =  -9.10825903588375E-08  9.51702443978652E+00
 cg2d: Sum(rhs),rhsMax =  -9.10679744947629E-08  9.51852327194360E+00
 cg2d: Sum(rhs),rhsMax =  -9.10538062726118E-08  9.51997861079381E+00
 cg2d: Sum(rhs),rhsMax =  -9.10403272769145E-08  9.52138713289450E+00
 cg2d: Sum(rhs),rhsMax =  -9.10271680254482E-08  9.52274605554116E+00
 cg2d: Sum(rhs),rhsMax =  -9.10143498344951E-08  9.52405313717331E+00
 cg2d: Sum(rhs),rhsMax =  -9.10022919242692E-08  9.52530666028232E+00
 cg2d: Sum(rhs),rhsMax =  -9.09905324419924E-08  9.52650541109617E+00
 cg2d: Sum(rhs),rhsMax =  -9.09794692915966E-08  9.52764864727963E+00
 cg2d: Sum(rhs),rhsMax =  -9.09689816808168E-08  9.52873605079492E+00
 cg2d: Sum(rhs),rhsMax =  -9.09588422359775E-08  9.52976767849440E+00
 cg2d: Sum(rhs),rhsMax =  -9.09493280687457E-08  9.53074391639987E+00
 cg2d: Sum(rhs),rhsMax =  -9.09404391791213E-08  9.53166530103624E+00
 cg2d: Sum(rhs),rhsMax =  -9.09316284491979E-08  9.53253252588939E+00
 EXTERNAL_FIELDS_LOAD, it=   3600210 : Reading new data, i0,i1=    4    5 (prev=    3    4 )
 DIC_FIELDS_LOAD, it=   3600210 : Reading new data, i0,i1=    4    5 (prev=    3    4 )
 cg2d: Sum(rhs),rhsMax =  -9.09236845814121E-08  9.53334634295211E+00
 cg2d: Sum(rhs),rhsMax =  -9.09162238826866E-08  9.53412016630968E+00
 cg2d: Sum(rhs),rhsMax =  -9.09088555545168E-08  9.53486144691540E+00
 cg2d: Sum(rhs),rhsMax =  -9.09020556605356E-08  9.53557668814411E+00
 cg2d: Sum(rhs),rhsMax =  -9.08950781308704E-08  9.53626990934916E+00
 cg2d: Sum(rhs),rhsMax =  -9.08885269268467E-08  9.53694479201801E+00
 cg2d: Sum(rhs),rhsMax =  -9.08819686173956E-08  9.53760402798875E+00
 cg2d: Sum(rhs),rhsMax =  -9.08758792661502E-08  9.53824943192211E+00
 cg2d: Sum(rhs),rhsMax =  -9.08692001644340E-08  9.53888215688552E+00
 cg2d: Sum(rhs),rhsMax =  -9.08633310814366E-08  9.53950304357000E+00
 cg2d: Sum(rhs),rhsMax =  -9.08575117364308E-08  9.54011304176576E+00
 cg2d: Sum(rhs),rhsMax =  -9.08516142317239E-08  9.54071301635899E+00
 cg2d: Sum(rhs),rhsMax =  -9.08458943627011E-08  9.54130322912294E+00
 cg2d: Sum(rhs),rhsMax =  -9.08400252797037E-08  9.54188272003942E+00
 cg2d: Sum(rhs),rhsMax =  -9.08349306882883E-08  9.54244934290944E+00
 cg2d: Sum(rhs),rhsMax =  -9.08295305634965E-08  9.54299999628384E+00
 cg2d: Sum(rhs),rhsMax =  -9.08241872821236E-08  9.54353092308816E+00
 cg2d: Sum(rhs),rhsMax =  -9.08189861092978E-08  9.54403796863502E+00
 cg2d: Sum(rhs),rhsMax =  -9.08142894218145E-08  9.54451678452915E+00
 cg2d: Sum(rhs),rhsMax =  -9.08097916862971E-08  9.54496303374895E+00
 cg2d: Sum(rhs),rhsMax =  -9.08056705384297E-08  9.54537256688658E+00
 cg2d: Sum(rhs),rhsMax =  -9.08016417611179E-08  9.54574155534994E+00
 cg2d: Sum(rhs),rhsMax =  -9.07979256226099E-08  9.54606657177462E+00
 cg2d: Sum(rhs),rhsMax =  -9.07952681927782E-08  9.54634467959792E+00
 cg2d: Sum(rhs),rhsMax =  -9.07924189164078E-08  9.54657345840157E+00
 cg2d: Sum(rhs),rhsMax =  -9.07902162339269E-08  9.54675102924543E+00
 cg2d: Sum(rhs),rhsMax =  -9.07886743561903E-08  9.54687605379506E+00
 cg2d: Sum(rhs),rhsMax =  -9.07877648614885E-08  9.54694771403842E+00
 cg2d: Sum(rhs),rhsMax =  -9.07869193156330E-08  9.54696566951997E+00
 cg2d: Sum(rhs),rhsMax =  -9.07865995714019E-08  9.54692999068711E+00
 cg2d: Sum(rhs),rhsMax =  -9.07872106381546E-08  9.54684108541375E+00
 cg2d: Sum(rhs),rhsMax =  -9.07884682987969E-08  9.54669963264824E+00
 cg2d: Sum(rhs),rhsMax =  -9.07898467517043E-08  9.54650651972953E+00
 cg2d: Sum(rhs),rhsMax =  -9.07915449488428E-08  9.54626274758502E+00
 cg2d: Sum(rhs),rhsMax =  -9.07941455352557E-08  9.54596935750525E+00
 cg2d: Sum(rhs),rhsMax =  -9.07970800767544E-08  9.54562738075971E+00
 cg2d: Sum(rhs),rhsMax =  -9.08000501453898E-08  9.54523778248193E+00
 cg2d: Sum(rhs),rhsMax =  -9.08038089164620E-08  9.54480140259877E+00
 cg2d: Sum(rhs),rhsMax =  -9.08078732209106E-08  9.54431888382345E+00
 cg2d: Sum(rhs),rhsMax =  -9.08128896526250E-08  9.54379063440704E+00
 cg2d: Sum(rhs),rhsMax =  -9.08179274006216E-08  9.54321682610369E+00
 cg2d: Sum(rhs),rhsMax =  -9.08231072571652E-08  9.54259741627488E+00
 cg2d: Sum(rhs),rhsMax =  -9.08294239820862E-08  9.54193218180504E+00
 cg2d: Sum(rhs),rhsMax =  -9.08357407070071E-08  9.54122075566689E+00
 cg2d: Sum(rhs),rhsMax =  -9.08426116552619E-08  9.54046266149910E+00
 cg2d: Sum(rhs),rhsMax =  -9.08497668206110E-08  9.53965734943055E+00
 cg2d: Sum(rhs),rhsMax =  -9.08576467395505E-08  9.53880424419014E+00
 cg2d: Sum(rhs),rhsMax =  -9.08659032461401E-08  9.53790282192021E+00
 cg2d: Sum(rhs),rhsMax =  -9.08746713434994E-08  9.53695268180845E+00
 cg2d: Sum(rhs),rhsMax =  -9.08840078750472E-08  9.53595362230667E+00
 cg2d: Sum(rhs),rhsMax =  -9.08936215182621E-08  9.53490571447803E+00
 cg2d: Sum(rhs),rhsMax =  -9.09042654484438E-08  9.53380930168364E+00
 cg2d: Sum(rhs),rhsMax =  -9.09145470018302E-08  9.53266493640869E+00
 cg2d: Sum(rhs),rhsMax =  -9.09259227910297E-08  9.53147332889492E+00
 cg2d: Sum(rhs),rhsMax =  -9.09384141323244E-08  9.53023537646442E+00
 cg2d: Sum(rhs),rhsMax =  -9.09505217805417E-08  9.52895220993865E+00
 cg2d: Sum(rhs),rhsMax =  -9.09629278567081E-08  9.52762520262973E+00
 cg2d: Sum(rhs),rhsMax =  -9.09757815747980E-08  9.52625594300855E+00
 cg2d: Sum(rhs),rhsMax =  -9.09892747813501E-08  9.52484621149773E+00
 cg2d: Sum(rhs),rhsMax =  -9.10029882561503E-08  9.52339794221070E+00
 EXTERNAL_FIELDS_LOAD, it=   3600270 : Reading new data, i0,i1=    5    6 (prev=    4    5 )
 DIC_FIELDS_LOAD, it=   3600270 : Reading new data, i0,i1=    5    6 (prev=    4    5 )
 cg2d: Sum(rhs),rhsMax =  -9.10169930534721E-08  9.52191318167782E+00
 cg2d: Sum(rhs),rhsMax =  -9.10311257484864E-08  9.52041761022813E+00
 cg2d: Sum(rhs),rhsMax =  -9.10455213443129E-08  9.51892843351038E+00
 cg2d: Sum(rhs),rhsMax =  -9.10593485059508E-08  9.51746258399289E+00
 cg2d: Sum(rhs),rhsMax =  -9.10729625047679E-08  9.51603636817957E+00
 cg2d: Sum(rhs),rhsMax =  -9.10860507019606E-08  9.51466517931999E+00
 cg2d: Sum(rhs),rhsMax =  -9.10986344138109E-08  9.51336322967766E+00
 cg2d: Sum(rhs),rhsMax =  -9.11102233658312E-08  9.51214329321166E+00
 cg2d: Sum(rhs),rhsMax =  -9.11212367782355E-08  9.51101645114812E+00
 cg2d: Sum(rhs),rhsMax =  -9.11308219997409E-08  9.50999185515969E+00
 cg2d: Sum(rhs),rhsMax =  -9.11397606273567E-08  9.50907652378690E+00
 cg2d: Sum(rhs),rhsMax =  -9.11473847509114E-08  9.50827517814543E+00
 cg2d: Sum(rhs),rhsMax =  -9.11540354309182E-08  9.50759014752173E+00
 cg2d: Sum(rhs),rhsMax =  -9.11595421371203E-08  9.50702134377118E+00
 cg2d: Sum(rhs),rhsMax =  -9.11640682943471E-08  9.50656629011210E+00
 cg2d: Sum(rhs),rhsMax =  -9.11673012637948E-08  9.50622019182364E+00
 cg2d: Sum(rhs),rhsMax =  -9.11696744765322E-08  9.50597606771963E+00
 cg2d: Sum(rhs),rhsMax =  -9.11708539774736E-08  9.50582494250500E+00
 cg2d: Sum(rhs),rhsMax =  -9.11716497853376E-08  9.50575608648473E+00
 cg2d: Sum(rhs),rhsMax =  -9.11714224116622E-08  9.50575729587021E+00
 cg2d: Sum(rhs),rhsMax =  -9.11708468720462E-08  9.50581523373235E+00
 cg2d: Sum(rhs),rhsMax =  -9.11699018502077E-08  9.50591575069248E+00
 cg2d: Sum(rhs),rhsMax =  -9.11685589244371E-08  9.50604420974297E+00
 cg2d: Sum(rhs),rhsMax =  -9.11669744141363E-08  9.50618583284504E+00
 cg2d: Sum(rhs),rhsMax =  -9.11656883317846E-08  9.50632606101357E+00
 cg2d: Sum(rhs),rhsMax =  -9.11643525114414E-08  9.50645090757042E+00
 cg2d: Sum(rhs),rhsMax =  -9.11635567035773E-08  9.50654729113363E+00
 cg2d: Sum(rhs),rhsMax =  -9.11632938027651E-08  9.50660334354173E+00
 cg2d: Sum(rhs),rhsMax =  -9.11633009081925E-08  9.50660868062301E+00
 cg2d: Sum(rhs),rhsMax =  -9.11639332912273E-08  9.50655462562515E+00
 cg2d: Sum(rhs),rhsMax =  -9.11649706836215E-08  9.50643436311089E+00
 cg2d: Sum(rhs),rhsMax =  -9.11672302095212E-08  9.50624304674150E+00
 cg2d: Sum(rhs),rhsMax =  -9.11696460548228E-08  9.50597781905916E+00
 cg2d: Sum(rhs),rhsMax =  -9.11727440211507E-08  9.50563777710892E+00
 cg2d: Sum(rhs),rhsMax =  -9.11770854372662E-08  9.50522393135291E+00
 cg2d: Sum(rhs),rhsMax =  -9.11816186999204E-08  9.50473911463816E+00
 cg2d: Sum(rhs),rhsMax =  -9.11870614572763E-08  9.50418773930678E+00
 cg2d: Sum(rhs),rhsMax =  -9.11928168534359E-08  9.50357558691374E+00
 cg2d: Sum(rhs),rhsMax =  -9.11992827923314E-08  9.50290964447458E+00
 cg2d: Sum(rhs),rhsMax =  -9.12065729608003E-08  9.50219791542795E+00
 cg2d: Sum(rhs),rhsMax =  -9.12139270781154E-08  9.50144918276843E+00
 cg2d: Sum(rhs),rhsMax =  -9.12212811954305E-08  9.50067274580360E+00
 cg2d: Sum(rhs),rhsMax =  -9.12293955934729E-08  9.49987815929010E+00
 cg2d: Sum(rhs),rhsMax =  -9.12369131356172E-08  9.49907498366882E+00
 cg2d: Sum(rhs),rhsMax =  -9.12447788437021E-08  9.49827255755378E+00
 cg2d: Sum(rhs),rhsMax =  -9.12528008711888E-08  9.49747978836020E+00
 cg2d: Sum(rhs),rhsMax =  -9.12602686753416E-08  9.49670496341604E+00
 cg2d: Sum(rhs),rhsMax =  -9.12679780640246E-08  9.49595558374171E+00
 cg2d: Sum(rhs),rhsMax =  -9.12747850634332E-08  9.49523821505845E+00
 cg2d: Sum(rhs),rhsMax =  -9.12811941589098E-08  9.49455836839740E+00
 cg2d: Sum(rhs),rhsMax =  -9.12878306280618E-08  9.49392042323925E+00
 cg2d: Sum(rhs),rhsMax =  -9.12937139219139E-08  9.49332754785973E+00
 cg2d: Sum(rhs),rhsMax =  -9.12992632606802E-08  9.49278165465699E+00
 cg2d: Sum(rhs),rhsMax =  -9.13035833605136E-08  9.49228339433203E+00
 cg2d: Sum(rhs),rhsMax =  -9.13086424247922E-08  9.49183218209292E+00
 cg2d: Sum(rhs),rhsMax =  -9.13127422563775E-08  9.49142625728328E+00
 cg2d: Sum(rhs),rhsMax =  -9.13163518134752E-08  9.49106276286301E+00
 cg2d: Sum(rhs),rhsMax =  -9.13194782015125E-08  9.49073783789306E+00
 cg2d: Sum(rhs),rhsMax =  -9.13225406407037E-08  9.49044672400271E+00
 cg2d: Sum(rhs),rhsMax =  -9.13253046519458E-08  9.49018390323782E+00
 EXTERNAL_FIELDS_LOAD, it=   3600330 : Reading new data, i0,i1=    6    7 (prev=    5    6 )
 DIC_FIELDS_LOAD, it=   3600330 : Reading new data, i0,i1=    6    7 (prev=    5    6 )
 cg2d: Sum(rhs),rhsMax =  -9.13276210212643E-08  9.48994325700856E+00
 cg2d: Sum(rhs),rhsMax =  -9.13303352945150E-08  9.48970801758053E+00
 cg2d: Sum(rhs),rhsMax =  -9.13328221940901E-08  9.48946471682098E+00
 cg2d: Sum(rhs),rhsMax =  -9.13353943587936E-08  9.48919980375378E+00
 cg2d: Sum(rhs),rhsMax =  -9.13383644274290E-08  9.48889996251626E+00
 cg2d: Sum(rhs),rhsMax =  -9.13418460868343E-08  9.48855235316500E+00
 cg2d: Sum(rhs),rhsMax =  -9.13461093432488E-08  9.48814487205053E+00
 cg2d: Sum(rhs),rhsMax =  -9.13508344524416E-08  9.48766639266868E+00
 cg2d: Sum(rhs),rhsMax =  -9.13563624749258E-08  9.48710698236420E+00
 cg2d: Sum(rhs),rhsMax =  -9.13624518261713E-08  9.48645808347463E+00
 cg2d: Sum(rhs),rhsMax =  -9.13698130489138E-08  9.48571268422533E+00
 cg2d: Sum(rhs),rhsMax =  -9.13783111400335E-08  9.48486545850383E+00
 cg2d: Sum(rhs),rhsMax =  -9.13876760932908E-08  9.48391285858374E+00
 cg2d: Sum(rhs),rhsMax =  -9.13977800109933E-08  9.48285315351105E+00
 cg2d: Sum(rhs),rhsMax =  -9.14093334358768E-08  9.48168641391458E+00
 cg2d: Sum(rhs),rhsMax =  -9.14215760872139E-08  9.48041445516485E+00
 cg2d: Sum(rhs),rhsMax =  -9.14348703418000E-08  9.47904073781749E+00
 cg2d: Sum(rhs),rhsMax =  -9.14490314585237E-08  9.47757022510765E+00
 cg2d: Sum(rhs),rhsMax =  -9.14641802296501E-08  9.47600920384239E+00
 cg2d: Sum(rhs),rhsMax =  -9.14802384954783E-08  9.47436507523804E+00
 cg2d: Sum(rhs),rhsMax =  -9.14970428311790E-08  9.47264612546539E+00
 cg2d: Sum(rhs),rhsMax =  -9.15143658630768E-08  9.47086128598380E+00
 cg2d: Sum(rhs),rhsMax =  -9.15317244221114E-08  9.46901988541289E+00
 cg2d: Sum(rhs),rhsMax =  -9.15503548526431E-08  9.46713139755286E+00
 cg2d: Sum(rhs),rhsMax =  -9.15688005420634E-08  9.46520519129246E+00
 cg2d: Sum(rhs),rhsMax =  -9.15879354579374E-08  9.46325027783096E+00
 cg2d: Sum(rhs),rhsMax =  -9.16070561629567E-08  9.46127510172983E+00
 cg2d: Sum(rhs),rhsMax =  -9.16269016215665E-08  9.45928736176468E+00
 cg2d: Sum(rhs),rhsMax =  -9.16458375854745E-08  9.45729384446051E+00
 cg2d: Sum(rhs),rhsMax =  -9.16652354021608E-08  9.45530032221759E+00
 cg2d: Sum(rhs),rhsMax =  -9.16847469056847E-08  9.45331147339530E+00
 cg2d: Sum(rhs),rhsMax =  -9.17041660386531E-08  9.45133082537812E+00
 cg2d: Sum(rhs),rhsMax =  -9.17234714847837E-08  9.44936073119909E+00
 cg2d: Sum(rhs),rhsMax =  -9.17423008672813E-08  9.44740238220463E+00
 cg2d: Sum(rhs),rhsMax =  -9.17614002560185E-08  9.44545585645758E+00
 cg2d: Sum(rhs),rhsMax =  -9.17801870059520E-08  9.44352020252140E+00
 cg2d: Sum(rhs),rhsMax =  -9.17989737558855E-08  9.44159355733174E+00
 cg2d: Sum(rhs),rhsMax =  -9.18179097197935E-08  9.43967327626014E+00
 cg2d: Sum(rhs),rhsMax =  -9.18367177860091E-08  9.43775607395104E+00
 cg2d: Sum(rhs),rhsMax =  -9.18552629514124E-08  9.43583817490269E+00
 cg2d: Sum(rhs),rhsMax =  -9.18742912858761E-08  9.43391546318717E+00
 cg2d: Sum(rhs),rhsMax =  -9.18933977800407E-08  9.43198362529795E+00
 cg2d: Sum(rhs),rhsMax =  -9.19123053222393E-08  9.43003828806143E+00
 cg2d: Sum(rhs),rhsMax =  -9.19319091963189E-08  9.42807514245689E+00
 cg2d: Sum(rhs),rhsMax =  -9.19516196518089E-08  9.42609005034801E+00
 cg2d: Sum(rhs),rhsMax =  -9.19711453661876E-08  9.42407914155286E+00
 cg2d: Sum(rhs),rhsMax =  -9.19916374186869E-08  9.42203890101561E+00
 cg2d: Sum(rhs),rhsMax =  -9.20122005254598E-08  9.41996625280574E+00
 cg2d: Sum(rhs),rhsMax =  -9.20328773190704E-08  9.41785862954787E+00
 cg2d: Sum(rhs),rhsMax =  -9.20541722848611E-08  9.41571402403211E+00
 cg2d: Sum(rhs),rhsMax =  -9.20761920042423E-08  9.41353104362712E+00
 cg2d: Sum(rhs),rhsMax =  -9.20975224971698E-08  9.41130897700722E+00
 cg2d: Sum(rhs),rhsMax =  -9.21202243375774E-08  9.40904782014454E+00
 cg2d: Sum(rhs),rhsMax =  -9.21427556477283E-08  9.40674826682519E+00
 cg2d: Sum(rhs),rhsMax =  -9.21658624974953E-08  9.40441167656376E+00
 cg2d: Sum(rhs),rhsMax =  -9.21897651551262E-08  9.40204003109270E+00
 cg2d: Sum(rhs),rhsMax =  -9.22136393910478E-08  9.39963588692061E+00
 cg2d: Sum(rhs),rhsMax =  -9.22377765277815E-08  9.39720232327049E+00
 cg2d: Sum(rhs),rhsMax =  -9.22617147125493E-08  9.39474287623570E+00
 cg2d: Sum(rhs),rhsMax =  -9.22866476571471E-08  9.39226147078604E+00
 EXTERNAL_FIELDS_LOAD, it=   3600390 : Reading new data, i0,i1=    7    8 (prev=    6    7 )
 DIC_FIELDS_LOAD, it=   3600390 : Reading new data, i0,i1=    7    8 (prev=    6    7 )
 cg2d: Sum(rhs),rhsMax =  -9.23120353490958E-08  9.38976233427929E+00
 cg2d: Sum(rhs),rhsMax =  -9.23369185557021E-08  9.38724381347799E+00
 cg2d: Sum(rhs),rhsMax =  -9.23620930848301E-08  9.38470550458213E+00
 cg2d: Sum(rhs),rhsMax =  -9.23878431535741E-08  9.38214640732935E+00
 cg2d: Sum(rhs),rhsMax =  -9.24133303215058E-08  9.37956498127073E+00
 cg2d: Sum(rhs),rhsMax =  -9.24395564538827E-08  9.37695924403383E+00
 cg2d: Sum(rhs),rhsMax =  -9.24659673273709E-08  9.37432689628576E+00
 cg2d: Sum(rhs),rhsMax =  -9.24926268908166E-08  9.37166545130188E+00
 cg2d: Sum(rhs),rhsMax =  -9.25199330481519E-08  9.36897236493602E+00
 cg2d: Sum(rhs),rhsMax =  -9.25472107837777E-08  9.36624514198210E+00
 cg2d: Sum(rhs),rhsMax =  -9.25749148450450E-08  9.36348144222541E+00
 cg2d: Sum(rhs),rhsMax =  -9.26027894365689E-08  9.36067916467522E+00
 cg2d: Sum(rhs),rhsMax =  -9.26316801042049E-08  9.35783651518778E+00
 cg2d: Sum(rhs),rhsMax =  -9.26604357687211E-08  9.35495205473915E+00
 cg2d: Sum(rhs),rhsMax =  -9.26899872411013E-08  9.35202472862356E+00
 cg2d: Sum(rhs),rhsMax =  -9.27198087197212E-08  9.34905386050751E+00
 cg2d: Sum(rhs),rhsMax =  -9.27502270542391E-08  9.34603912446753E+00
 cg2d: Sum(rhs),rhsMax =  -9.27809580275607E-08  9.34298052032945E+00
 cg2d: Sum(rhs),rhsMax =  -9.28122148025068E-08  9.33987837125357E+00
 cg2d: Sum(rhs),rhsMax =  -9.28438836922396E-08  9.33673332003228E+00
 cg2d: Sum(rhs),rhsMax =  -9.28756591633828E-08  9.33354631509102E+00
 cg2d: Sum(rhs),rhsMax =  -9.29085999246126E-08  9.33031856217985E+00
 cg2d: Sum(rhs),rhsMax =  -9.29414056827227E-08  9.32705144157814E+00
 cg2d: Sum(rhs),rhsMax =  -9.29742824951063E-08  9.32374640924821E+00
 cg2d: Sum(rhs),rhsMax =  -9.30079835370634E-08  9.32040491207867E+00
 cg2d: Sum(rhs),rhsMax =  -9.30417982658582E-08  9.31702830536998E+00
 cg2d: Sum(rhs),rhsMax =  -9.30764798567907E-08  9.31361778906816E+00
 cg2d: Sum(rhs),rhsMax =  -9.31104011669959E-08  9.31017435680010E+00
 cg2d: Sum(rhs),rhsMax =  -9.31454593455783E-08  9.30669874783390E+00
 cg2d: Sum(rhs),rhsMax =  -9.31809367443748E-08  9.30319140183628E+00
 cg2d: Sum(rhs),rhsMax =  -9.32159238686836E-08  9.29965242032067E+00
 cg2d: Sum(rhs),rhsMax =  -9.32518702256857E-08  9.29608155387300E+00
 cg2d: Sum(rhs),rhsMax =  -9.32883352788849E-08  9.29247816276956E+00
 cg2d: Sum(rhs),rhsMax =  -9.33245232204172E-08  9.28884120452690E+00
 cg2d: Sum(rhs),rhsMax =  -9.33613577558390E-08  9.28516924951164E+00
 cg2d: Sum(rhs),rhsMax =  -9.33982562401070E-08  9.28146051649491E+00
 cg2d: Sum(rhs),rhsMax =  -9.34364479121541E-08  9.27771291851975E+00
 cg2d: Sum(rhs),rhsMax =  -9.34740143065937E-08  9.27392411497484E+00
 cg2d: Sum(rhs),rhsMax =  -9.35126251988549E-08  9.27009157616147E+00
 cg2d: Sum(rhs),rhsMax =  -9.35518329470142E-08  9.26621266064052E+00
 cg2d: Sum(rhs),rhsMax =  -9.35912964905583E-08  9.26228469753356E+00
 cg2d: Sum(rhs),rhsMax =  -9.36311082000429E-08  9.25830502540661E+00
 cg2d: Sum(rhs),rhsMax =  -9.36718080879473E-08  9.25427104022615E+00
 cg2d: Sum(rhs),rhsMax =  -9.37130835154676E-08  9.25018025806528E+00
 cg2d: Sum(rhs),rhsMax =  -9.37547639523473E-08  9.24603037476154E+00
 cg2d: Sum(rhs),rhsMax =  -9.37974888870485E-08  9.24181932462259E+00
 cg2d: Sum(rhs),rhsMax =  -9.38402919814507E-08  9.23754533703139E+00
 cg2d: Sum(rhs),rhsMax =  -9.38843172093584E-08  9.23320698439808E+00
 cg2d: Sum(rhs),rhsMax =  -9.39290814017113E-08  9.22880321317793E+00
 cg2d: Sum(rhs),rhsMax =  -9.39739734917566E-08  9.22433335164241E+00
 cg2d: Sum(rhs),rhsMax =  -9.40200521881707E-08  9.21979710173837E+00
 cg2d: Sum(rhs),rhsMax =  -9.40667135296280E-08  9.21519452384442E+00
 cg2d: Sum(rhs),rhsMax =  -9.41140712029664E-08  9.21052602027441E+00
 cg2d: Sum(rhs),rhsMax =  -9.41621181027585E-08  9.20579231856880E+00
 cg2d: Sum(rhs),rhsMax =  -9.42108115964402E-08  9.20099445172383E+00
 cg2d: Sum(rhs),rhsMax =  -9.42603506359774E-08  9.19613373409314E+00
 cg2d: Sum(rhs),rhsMax =  -9.43106570616692E-08  9.19121172891709E+00
 cg2d: Sum(rhs),rhsMax =  -9.43619582471911E-08  9.18623021276131E+00
 cg2d: Sum(rhs),rhsMax =  -9.44129254776271E-08  9.18119115032627E+00
 cg2d: Sum(rhs),rhsMax =  -9.44648874678933E-08  9.17609666859133E+00
 EXTERNAL_FIELDS_LOAD, it=   3600450 : Reading new data, i0,i1=    8    9 (prev=    7    8 )
 DIC_FIELDS_LOAD, it=   3600450 : Reading new data, i0,i1=    8    9 (prev=    7    8 )
 cg2d: Sum(rhs),rhsMax =  -9.45180929079470E-08  9.17094900539886E+00
 cg2d: Sum(rhs),rhsMax =  -9.45713196642828E-08  9.16576037761048E+00
 cg2d: Sum(rhs),rhsMax =  -9.46249869571147E-08  9.16053907873528E+00
 cg2d: Sum(rhs),rhsMax =  -9.46787679367844E-08  9.15529303788953E+00
 cg2d: Sum(rhs),rhsMax =  -9.47327123412833E-08  9.15002961005962E+00
 cg2d: Sum(rhs),rhsMax =  -9.47873814993727E-08  9.14475542293395E+00
 cg2d: Sum(rhs),rhsMax =  -9.48415888046839E-08  9.13947626776025E+00
 cg2d: Sum(rhs),rhsMax =  -9.48963148061921E-08  9.13419703804716E+00
 cg2d: Sum(rhs),rhsMax =  -9.49505718494947E-08  9.12892171232682E+00
 cg2d: Sum(rhs),rhsMax =  -9.50055820680973E-08  9.12365335338700E+00
 cg2d: Sum(rhs),rhsMax =  -9.50602441207593E-08  9.11839411243203E+00
 cg2d: Sum(rhs),rhsMax =  -9.51149274897034E-08  9.11314523538299E+00
 cg2d: Sum(rhs),rhsMax =  -9.51689713701853E-08  9.10790707134369E+00
 cg2d: Sum(rhs),rhsMax =  -9.52241663298992E-08  9.10267908920085E+00
 cg2d: Sum(rhs),rhsMax =  -9.52785583763216E-08  9.09745990818067E+00
 cg2d: Sum(rhs),rhsMax =  -9.53332346398383E-08  9.09224734512777E+00
 cg2d: Sum(rhs),rhsMax =  -9.53879322196372E-08  9.08703847736888E+00
 cg2d: Sum(rhs),rhsMax =  -9.54423811094784E-08  9.08182972075513E+00
 cg2d: Sum(rhs),rhsMax =  -9.54974623823546E-08  9.07661692347198E+00
 cg2d: Sum(rhs),rhsMax =  -9.55527141854873E-08  9.07139547821490E+00
 cg2d: Sum(rhs),rhsMax =  -9.56078878289190E-08  9.06616045270155E+00
 cg2d: Sum(rhs),rhsMax =  -9.56632462134621E-08  9.06090673305150E+00
 cg2d: Sum(rhs),rhsMax =  -9.57190593453561E-08  9.05562917574046E+00
 cg2d: Sum(rhs),rhsMax =  -9.57753982788745E-08  9.05032276301453E+00
 cg2d: Sum(rhs),rhsMax =  -9.58323127520089E-08  9.04498274779792E+00
 cg2d: Sum(rhs),rhsMax =  -9.58890566948867E-08  9.03960479010611E+00
 cg2d: Sum(rhs),rhsMax =  -9.59469090844323E-08  9.03418508103277E+00
 cg2d: Sum(rhs),rhsMax =  -9.60046975251316E-08  9.02872044807494E+00
 cg2d: Sum(rhs),rhsMax =  -9.60634949365158E-08  9.02320843719522E+00
 cg2d: Sum(rhs),rhsMax =  -9.61234505325592E-08  9.01764736350553E+00
 cg2d: Sum(rhs),rhsMax =  -9.61829158541150E-08  9.01203632711249E+00
 cg2d: Sum(rhs),rhsMax =  -9.62436175200310E-08  9.00637519234014E+00
 cg2d: Sum(rhs),rhsMax =  -9.63047241953063E-08  9.00066454100738E+00
 cg2d: Sum(rhs),rhsMax =  -9.63663566722062E-08  8.99490560644289E+00
 cg2d: Sum(rhs),rhsMax =  -9.64286215321408E-08  8.98910019830229E+00
 cg2d: Sum(rhs),rhsMax =  -9.64914832479735E-08  8.98325060608421E+00
 cg2d: Sum(rhs),rhsMax =  -9.65549631359863E-08  8.97735949860674E+00
 cg2d: Sum(rhs),rhsMax =  -9.66191180395981E-08  8.97142982445055E+00
 cg2d: Sum(rhs),rhsMax =  -9.66832942594920E-08  8.96546471599943E+00
 cg2d: Sum(rhs),rhsMax =  -9.67482520763951E-08  8.95946740124540E+00
 cg2d: Sum(rhs),rhsMax =  -9.68132098932983E-08  8.95344112713886E+00
 cg2d: Sum(rhs),rhsMax =  -9.68790274669118E-08  8.94738909112794E+00
 cg2d: Sum(rhs),rhsMax =  -9.69447810916790E-08  8.94131438207753E+00
 cg2d: Sum(rhs),rhsMax =  -9.70111884157632E-08  8.93521991327319E+00
 cg2d: Sum(rhs),rhsMax =  -9.70773115227530E-08  8.92910833888471E+00
 cg2d: Sum(rhs),rhsMax =  -9.71445075492738E-08  8.92298199747039E+00
 cg2d: Sum(rhs),rhsMax =  -9.72113554098541E-08  8.91684290726808E+00
 cg2d: Sum(rhs),rhsMax =  -9.72787574937684E-08  8.91069264633776E+00
 cg2d: Sum(rhs),rhsMax =  -9.73459535202892E-08  8.90453228797114E+00
 cg2d: Sum(rhs),rhsMax =  -9.74135971887335E-08  8.89836249714105E+00
 cg2d: Sum(rhs),rhsMax =  -9.74817027099562E-08  8.89218368115518E+00
 cg2d: Sum(rhs),rhsMax =  -9.75496519117769E-08  8.88599608996445E+00
 cg2d: Sum(rhs),rhsMax =  -9.76179350686834E-08  8.87979980032782E+00
 cg2d: Sum(rhs),rhsMax =  -9.76860476953334E-08  8.87359466021019E+00
 cg2d: Sum(rhs),rhsMax =  -9.77549490244201E-08  8.86737992136571E+00
 cg2d: Sum(rhs),rhsMax =  -9.78237792992331E-08  8.86115449881272E+00
 cg2d: Sum(rhs),rhsMax =  -9.78925882577641E-08  8.85491714939279E+00
 cg2d: Sum(rhs),rhsMax =  -9.79620651264668E-08  8.84866650814923E+00
 cg2d: Sum(rhs),rhsMax =  -9.80318830556826E-08  8.84239908862083E+00
 cg2d: Sum(rhs),rhsMax =  -9.81016583523342E-08  8.83611205511795E+00
 EXTERNAL_FIELDS_LOAD, it=   3600510 : Reading new data, i0,i1=    9   10 (prev=    8    9 )
 DIC_FIELDS_LOAD, it=   3600510 : Reading new data, i0,i1=    9   10 (prev=    8    9 )
 cg2d: Sum(rhs),rhsMax =  -9.81721868242857E-08  8.82980306034887E+00
 cg2d: Sum(rhs),rhsMax =  -9.82427721396562E-08  8.82347164349139E+00
 cg2d: Sum(rhs),rhsMax =  -9.83135990395567E-08  8.81711735596894E+00
 cg2d: Sum(rhs),rhsMax =  -9.83851720093298E-08  8.81074020360017E+00
 cg2d: Sum(rhs),rhsMax =  -9.84564962891454E-08  8.80434063629974E+00
 cg2d: Sum(rhs),rhsMax =  -9.85286376931072E-08  8.79791959804717E+00
 cg2d: Sum(rhs),rhsMax =  -9.86011414738641E-08  8.79147850051498E+00
 cg2d: Sum(rhs),rhsMax =  -9.86734960406466E-08  8.78501923806664E+00
 cg2d: Sum(rhs),rhsMax =  -9.87464900958912E-08  8.77854412431977E+00
 cg2d: Sum(rhs),rhsMax =  -9.88197470519481E-08  8.77205585109022E+00
 cg2d: Sum(rhs),rhsMax =  -9.88934729662105E-08  8.76555740298602E+00
 cg2d: Sum(rhs),rhsMax =  -9.89669146633787E-08  8.75905198910442E+00
 cg2d: Sum(rhs),rhsMax =  -9.90407258427695E-08  8.75254295465281E+00
 cg2d: Sum(rhs),rhsMax =  -9.91145014950234E-08  8.74603368964057E+00
 cg2d: Sum(rhs),rhsMax =  -9.91886466295000E-08  8.73952755244439E+00
 cg2d: Sum(rhs),rhsMax =  -9.92623157003436E-08  8.73302782624689E+00
 cg2d: Sum(rhs),rhsMax =  -9.93363400425551E-08  8.72653766294564E+00
 cg2d: Sum(rhs),rhsMax =  -9.94104141227581E-08  8.72006002219781E+00
 cg2d: Sum(rhs),rhsMax =  -9.94844668866790E-08  8.71359759621992E+00
 cg2d: Sum(rhs),rhsMax =  -9.95583775420528E-08  8.70715278372291E+00
 cg2d: Sum(rhs),rhsMax =  -9.96322597757171E-08  8.70072771032166E+00
 cg2d: Sum(rhs),rhsMax =  -9.97059714791249E-08  8.69432422374462E+00
 cg2d: Sum(rhs),rhsMax =  -9.97792923840279E-08  8.68794392220557E+00
 cg2d: Sum(rhs),rhsMax =  -9.98527127649140E-08  8.68159287495532E+00
 cg2d: Sum(rhs),rhsMax =  -9.99256144496030E-08  8.67527594836007E+00
 cg2d: Sum(rhs),rhsMax =  -9.99983740257449E-08  8.66899648662334E+00
 cg2d: Sum(rhs),rhsMax =  -1.00070764119664E-07  8.66275674813775E+00
 cg2d: Sum(rhs),rhsMax =  -1.00142791836788E-07  8.65655808426570E+00
 cg2d: Sum(rhs),rhsMax =  -1.00214123222031E-07  8.65040095427649E+00
 cg2d: Sum(rhs),rhsMax =  -1.00285419080137E-07  8.64428511771589E+00
 cg2d: Sum(rhs),rhsMax =  -1.00356203347474E-07  8.63820779072895E+00
 cg2d: Sum(rhs),rhsMax =  -1.00426881033400E-07  8.63216610266613E+00
 cg2d: Sum(rhs),rhsMax =  -1.00497182131676E-07  8.62615664857018E+00
 cg2d: Sum(rhs),rhsMax =  -1.00566929006618E-07  8.62017549344574E+00
 cg2d: Sum(rhs),rhsMax =  -1.00636839306389E-07  8.61421824973427E+00
 cg2d: Sum(rhs),rhsMax =  -1.00706515127058E-07  8.60828014305759E+00
 cg2d: Sum(rhs),rhsMax =  -1.00776318845419E-07  8.60235619466164E+00
 cg2d: Sum(rhs),rhsMax =  -1.00845916506387E-07  8.59644141396147E+00
 cg2d: Sum(rhs),rhsMax =  -1.00915485745645E-07  8.59053104903554E+00
 cg2d: Sum(rhs),rhsMax =  -1.00985261042297E-07  8.58462072248315E+00
 cg2d: Sum(rhs),rhsMax =  -1.01055491086299E-07  8.57870663714626E+00
 cg2d: Sum(rhs),rhsMax =  -1.01125422702353E-07  8.57278566865890E+00
 cg2d: Sum(rhs),rhsMax =  -1.01195716695202E-07  8.56685532083521E+00
 cg2d: Sum(rhs),rhsMax =  -1.01266216745444E-07  8.56091374139585E+00
 cg2d: Sum(rhs),rhsMax =  -1.01337192859319E-07  8.55495975914983E+00
 cg2d: Sum(rhs),rhsMax =  -1.01408346608878E-07  8.54899275863313E+00
 cg2d: Sum(rhs),rhsMax =  -1.01479535885574E-07  8.54301265247851E+00
 cg2d: Sum(rhs),rhsMax =  -1.01551435705005E-07  8.53701978569626E+00
 cg2d: Sum(rhs),rhsMax =  -1.01622724457684E-07  8.53101490472480E+00
 cg2d: Sum(rhs),rhsMax =  -1.01695292187287E-07  8.52499919193590E+00
 cg2d: Sum(rhs),rhsMax =  -1.01767554383514E-07  8.51897431341724E+00
 cg2d: Sum(rhs),rhsMax =  -1.01840242905382E-07  8.51294235247767E+00
 cg2d: Sum(rhs),rhsMax =  -1.01912846162122E-07  8.50690569200869E+00
 cg2d: Sum(rhs),rhsMax =  -1.01985413891725E-07  8.50087005576702E+00
 cg2d: Sum(rhs),rhsMax =  -1.02058450579534E-07  8.49484015017416E+00
 cg2d: Sum(rhs),rhsMax =  -1.02131188839394E-07  8.48882063673028E+00
 cg2d: Sum(rhs),rhsMax =  -1.02203856044980E-07  8.48281607441673E+00
 cg2d: Sum(rhs),rhsMax =  -1.02276672464541E-07  8.47683086082370E+00
 cg2d: Sum(rhs),rhsMax =  -1.02349595465512E-07  8.47086915096995E+00
 cg2d: Sum(rhs),rhsMax =  -1.02421360281824E-07  8.46493476809303E+00
 EXTERNAL_FIELDS_LOAD, it=   3600570 : Reading new data, i0,i1=   10   11 (prev=    9   10 )
 DIC_FIELDS_LOAD, it=   3600570 : Reading new data, i0,i1=   10   11 (prev=    9   10 )
 cg2d: Sum(rhs),rhsMax =  -1.02493515896640E-07  8.45903109783263E+00
 cg2d: Sum(rhs),rhsMax =  -1.02564975179575E-07  8.45319648993583E+00
 cg2d: Sum(rhs),rhsMax =  -1.02634501786270E-07  8.44745634270964E+00
 cg2d: Sum(rhs),rhsMax =  -1.02703893389844E-07  8.44183524325516E+00
 cg2d: Sum(rhs),rhsMax =  -1.02770819410125E-07  8.43635626330932E+00
 cg2d: Sum(rhs),rhsMax =  -1.02836231974379E-07  8.43104036727980E+00
 cg2d: Sum(rhs),rhsMax =  -1.02899214482477E-07  8.42590597581903E+00
 cg2d: Sum(rhs),rhsMax =  -1.02960150627496E-07  8.42096861540595E+00
 cg2d: Sum(rhs),rhsMax =  -1.03018727770632E-07  8.41624063283881E+00
 cg2d: Sum(rhs),rhsMax =  -1.03074462742825E-07  8.41173099284368E+00
 cg2d: Sum(rhs),rhsMax =  -1.03127582917750E-07  8.40744522364360E+00
 cg2d: Sum(rhs),rhsMax =  -1.03177704602331E-07  8.40338548638234E+00
 cg2d: Sum(rhs),rhsMax =  -1.03225289649345E-07  8.39955071057647E+00
 cg2d: Sum(rhs),rhsMax =  -1.03270444640202E-07  8.39593686353065E+00
 cg2d: Sum(rhs),rhsMax =  -1.03312800092681E-07  8.39253726007720E+00
 cg2d: Sum(rhs),rhsMax =  -1.03352554958747E-07  8.38934286490718E+00
 cg2d: Sum(rhs),rhsMax =  -1.03389886874083E-07  8.38634267692018E+00
 cg2d: Sum(rhs),rhsMax =  -1.03425186637196E-07  8.38352418466840E+00
 cg2d: Sum(rhs),rhsMax =  -1.03458575040349E-07  8.38087384792736E+00
 cg2d: Sum(rhs),rhsMax =  -1.03489654179612E-07  8.37837764295235E+00
 cg2d: Sum(rhs),rhsMax =  -1.03519347760539E-07  8.37602165023152E+00
 cg2d: Sum(rhs),rhsMax =  -1.03547364460610E-07  8.37379265495454E+00
 cg2d: Sum(rhs),rhsMax =  -1.03573896126363E-07  8.37167859305842E+00
 cg2d: Sum(rhs),rhsMax =  -1.03599155920620E-07  8.36966841617237E+00
 cg2d: Sum(rhs),rhsMax =  -1.03623357006200E-07  8.36775262363169E+00
 cg2d: Sum(rhs),rhsMax =  -1.03646584648232E-07  8.36592322530019E+00
 cg2d: Sum(rhs),rhsMax =  -1.03668426731929E-07  8.36417370361670E+00
 cg2d: Sum(rhs),rhsMax =  -1.03689806962848E-07  8.36249893566327E+00
 cg2d: Sum(rhs),rhsMax =  -1.03710164012227E-07  8.36089512198643E+00
 cg2d: Sum(rhs),rhsMax =  -1.03729064448999E-07  8.35935972193128E+00
 cg2d: Sum(rhs),rhsMax =  -1.03747986202052E-07  8.35789132052859E+00
 cg2d: Sum(rhs),rhsMax =  -1.03765373182796E-07  8.35648953984663E+00
 cg2d: Sum(rhs),rhsMax =  -1.03782369365035E-07  8.35515503666620E+00
 cg2d: Sum(rhs),rhsMax =  -1.03798733164240E-07  8.35388959337713E+00
 cg2d: Sum(rhs),rhsMax =  -1.03813491136862E-07  8.35269612989214E+00
 cg2d: Sum(rhs),rhsMax =  -1.03827638042731E-07  8.35157865319166E+00
 cg2d: Sum(rhs),rhsMax =  -1.03841280463257E-07  8.35054220321588E+00
 cg2d: Sum(rhs),rhsMax =  -1.03853331268056E-07  8.34959282244478E+00
 cg2d: Sum(rhs),rhsMax =  -1.03864024936229E-07  8.34873757212784E+00
 cg2d: Sum(rhs),rhsMax =  -1.03873794898846E-07  8.34798443944571E+00
 cg2d: Sum(rhs),rhsMax =  -1.03881951929452E-07  8.34734205444848E+00
 cg2d: Sum(rhs),rhsMax =  -1.03888730507151E-07  8.34681927427749E+00
 cg2d: Sum(rhs),rhsMax =  -1.03893782466002E-07  8.34642479662444E+00
 cg2d: Sum(rhs),rhsMax =  -1.03896695691219E-07  8.34616690162161E+00
 cg2d: Sum(rhs),rhsMax =  -1.03898251779810E-07  8.34605328416144E+00
 cg2d: Sum(rhs),rhsMax =  -1.03897747294468E-07  8.34609086201575E+00
 cg2d: Sum(rhs),rhsMax =  -1.03895416714295E-07  8.34628560159372E+00
 cg2d: Sum(rhs),rhsMax =  -1.03891132141598E-07  8.34664238294981E+00
 cg2d: Sum(rhs),rhsMax =  -1.03884730151549E-07  8.34716488141953E+00
 cg2d: Sum(rhs),rhsMax =  -1.03876232060429E-07  8.34785544920597E+00
 cg2d: Sum(rhs),rhsMax =  -1.03865339440290E-07  8.34871504733891E+00
 cg2d: Sum(rhs),rhsMax =  -1.03852393351644E-07  8.34974320296400E+00
 cg2d: Sum(rhs),rhsMax =  -1.03837578535604E-07  8.35093803633076E+00
 cg2d: Sum(rhs),rhsMax =  -1.03820866570459E-07  8.35229628921908E+00
 cg2d: Sum(rhs),rhsMax =  -1.03801575335183E-07  8.35381348895399E+00
 cg2d: Sum(rhs),rhsMax =  -1.03780770643880E-07  8.35548405560547E+00
 cg2d: Sum(rhs),rhsMax =  -1.03758168279455E-07  8.35730145035772E+00
 cg2d: Sum(rhs),rhsMax =  -1.03734052459004E-07  8.35925834161856E+00
 cg2d: Sum(rhs),rhsMax =  -1.03707641585515E-07  8.36134677020027E+00
 cg2d: Sum(rhs),rhsMax =  -1.03680264373907E-07  8.36355833544679E+00
 EXTERNAL_FIELDS_LOAD, it=   3600630 : Reading new data, i0,i1=   11   12 (prev=   10   11 )
 DIC_FIELDS_LOAD, it=   3600630 : Reading new data, i0,i1=   11   12 (prev=   10   11 )
 cg2d: Sum(rhs),rhsMax =  -1.03651167648877E-07  8.36588437297216E+00
 cg2d: Sum(rhs),rhsMax =  -1.03620983793462E-07  8.36829873825493E+00
 cg2d: Sum(rhs),rhsMax =  -1.03590167555012E-07  8.37078098256463E+00
 cg2d: Sum(rhs),rhsMax =  -1.03558832620365E-07  8.37331076990736E+00
 cg2d: Sum(rhs),rhsMax =  -1.03526986094948E-07  8.37586828475342E+00
 cg2d: Sum(rhs),rhsMax =  -1.03494969039275E-07  8.37843651347270E+00
 cg2d: Sum(rhs),rhsMax =  -1.03462959089029E-07  8.38100058596186E+00
 cg2d: Sum(rhs),rhsMax =  -1.03431759157502E-07  8.38354800119352E+00
 cg2d: Sum(rhs),rhsMax =  -1.03400431328282E-07  8.38606907281455E+00
 cg2d: Sum(rhs),rhsMax =  -1.03369536930131E-07  8.38855705740912E+00
 cg2d: Sum(rhs),rhsMax =  -1.03339182544460E-07  8.39100818777902E+00
 cg2d: Sum(rhs),rhsMax =  -1.03309091059600E-07  8.39342162927294E+00
 cg2d: Sum(rhs),rhsMax =  -1.03279326424399E-07  8.39579937673915E+00
 cg2d: Sum(rhs),rhsMax =  -1.03250158645096E-07  8.39814606298476E+00
 cg2d: Sum(rhs),rhsMax =  -1.03221587721691E-07  8.40046867037939E+00
 cg2d: Sum(rhs),rhsMax =  -1.03192640210636E-07  8.40277617859981E+00
 cg2d: Sum(rhs),rhsMax =  -1.03164317977189E-07  8.40507915533000E+00
 cg2d: Sum(rhs),rhsMax =  -1.03135583628955E-07  8.40738929078001E+00
 cg2d: Sum(rhs),rhsMax =  -1.03106465587643E-07  8.40971893982490E+00
 cg2d: Sum(rhs),rhsMax =  -1.03077603341717E-07  8.41208069021930E+00
 cg2d: Sum(rhs),rhsMax =  -1.03047760546815E-07  8.41448664736628E+00
 cg2d: Sum(rhs),rhsMax =  -1.03017328001442E-07  8.41694808963461E+00
 cg2d: Sum(rhs),rhsMax =  -1.02985850958248E-07  8.41947641344255E+00
 cg2d: Sum(rhs),rhsMax =  -1.02953762848301E-07  8.42209465677943E+00
 cg2d: Sum(rhs),rhsMax =  -1.02920779454507E-07  8.42481840011152E+00
 cg2d: Sum(rhs),rhsMax =  -1.02885756803062E-07  8.42766143831664E+00
 cg2d: Sum(rhs),rhsMax =  -1.02849760708068E-07  8.43063562227923E+00
 cg2d: Sum(rhs),rhsMax =  -1.02811505087175E-07  8.43375048923612E+00
 cg2d: Sum(rhs),rhsMax =  -1.02771743115682E-07  8.43701312183894E+00
 cg2d: Sum(rhs),rhsMax =  -1.02730268736195E-07  8.44042805498092E+00
 cg2d: Sum(rhs),rhsMax =  -1.02686364300553E-07  8.44399728026233E+00
 cg2d: Sum(rhs),rhsMax =  -1.02641237731405E-07  8.44772028674299E+00
 cg2d: Sum(rhs),rhsMax =  -1.02594057693750E-07  8.45159419183708E+00
 cg2d: Sum(rhs),rhsMax =  -1.02545079982974E-07  8.45561389463918E+00
 cg2d: Sum(rhs),rhsMax =  -1.02494418285914E-07  8.45977229544668E+00
 cg2d: Sum(rhs),rhsMax =  -1.02442626825905E-07  8.46406043486096E+00
 cg2d: Sum(rhs),rhsMax =  -1.02389186906748E-07  8.46846786249842E+00
 cg2d: Sum(rhs),rhsMax =  -1.02334411167249E-07  8.47298294092153E+00
 cg2d: Sum(rhs),rhsMax =  -1.02278569613645E-07  8.47759310010859E+00
 cg2d: Sum(rhs),rhsMax =  -1.02221783038203E-07  8.48228511495217E+00
 cg2d: Sum(rhs),rhsMax =  -1.02164435134000E-07  8.48704540520819E+00
 cg2d: Sum(rhs),rhsMax =  -1.02106639587873E-07  8.49186038102640E+00
 cg2d: Sum(rhs),rhsMax =  -1.02048161920720E-07  8.49671683330553E+00
 cg2d: Sum(rhs),rhsMax =  -1.01989222400789E-07  8.50160229731839E+00
 cg2d: Sum(rhs),rhsMax =  -1.01930119456028E-07  8.50650541756349E+00
 cg2d: Sum(rhs),rhsMax =  -1.01871734159431E-07  8.51141606286167E+00
 cg2d: Sum(rhs),rhsMax =  -1.01813114383731E-07  8.51632550458549E+00
 cg2d: Sum(rhs),rhsMax =  -1.01754352499484E-07  8.52122658728227E+00
 cg2d: Sum(rhs),rhsMax =  -1.01695938781177E-07  8.52611387363114E+00
 cg2d: Sum(rhs),rhsMax =  -1.01637908755947E-07  8.53098375482528E+00
 cg2d: Sum(rhs),rhsMax =  -1.01580091893538E-07  8.53583450654913E+00
 cg2d: Sum(rhs),rhsMax =  -1.01522516615660E-07  8.54066629803099E+00
 cg2d: Sum(rhs),rhsMax =  -1.01465325030858E-07  8.54548114840508E+00
 cg2d: Sum(rhs),rhsMax =  -1.01408510033707E-07  8.55028281355603E+00
 cg2d: Sum(rhs),rhsMax =  -1.01351844250530E-07  8.55507663782142E+00
 cg2d: Sum(rhs),rhsMax =  -1.01294901355686E-07  8.55986938569464E+00
 cg2d: Sum(rhs),rhsMax =  -1.01238242677937E-07  8.56466907941720E+00
 cg2d: Sum(rhs),rhsMax =  -1.01181711897880E-07  8.56948481849350E+00
 cg2d: Sum(rhs),rhsMax =  -1.01124427942523E-07  8.57432655386490E+00
 cg2d: Sum(rhs),rhsMax =  -1.01066994773191E-07  8.57920482306538E+00
 EXTERNAL_FIELDS_LOAD, it=   3600690 : Reading new data, i0,i1=   12    1 (prev=   11   12 )
 DIC_FIELDS_LOAD, it=   3600690 : Reading new data, i0,i1=   12    1 (prev=   11   12 )
 cg2d: Sum(rhs),rhsMax =  -1.01009099751082E-07  8.58413045456863E+00
 cg2d: Sum(rhs),rhsMax =  -1.00950970249869E-07  8.58908772075261E+00
 cg2d: Sum(rhs),rhsMax =  -1.00892201260194E-07  8.59407113784658E+00
 cg2d: Sum(rhs),rhsMax =  -1.00833979388426E-07  8.59907533504329E+00
 cg2d: Sum(rhs),rhsMax =  -1.00775366718153E-07  8.60409527812640E+00
 cg2d: Sum(rhs),rhsMax =  -1.00716533779632E-07  8.60912639608676E+00
 cg2d: Sum(rhs),rhsMax =  -1.00657807422522E-07  8.61416467727663E+00
 cg2d: Sum(rhs),rhsMax =  -1.00599194752249E-07  8.61920670304104E+00
 cg2d: Sum(rhs),rhsMax =  -1.00540219705181E-07  8.62424959025954E+00
 cg2d: Sum(rhs),rhsMax =  -1.00481713616318E-07  8.62929084710763E+00
 cg2d: Sum(rhs),rhsMax =  -1.00423278581729E-07  8.63432823431656E+00
 cg2d: Sum(rhs),rhsMax =  -1.00365085131671E-07  8.63935967110789E+00
 cg2d: Sum(rhs),rhsMax =  -1.00306984052168E-07  8.64438326330631E+00
 cg2d: Sum(rhs),rhsMax =  -1.00248698231553E-07  8.64939736363611E+00
 cg2d: Sum(rhs),rhsMax =  -1.00191144269957E-07  8.65440069908248E+00
 cg2d: Sum(rhs),rhsMax =  -1.00133568992078E-07  8.65939260929048E+00
 cg2d: Sum(rhs),rhsMax =  -1.00076100295610E-07  8.66437312037654E+00
 cg2d: Sum(rhs),rhsMax =  -1.00019036608501E-07  8.66934290835576E+00
 cg2d: Sum(rhs),rhsMax =  -9.99617597585711E-08  8.67430225124478E+00
 cg2d: Sum(rhs),rhsMax =  -9.99047102823170E-08  8.67925494682890E+00
 cg2d: Sum(rhs),rhsMax =  -9.98482363456787E-08  8.68420608713978E+00
 cg2d: Sum(rhs),rhsMax =  -9.97913716105359E-08  8.68916081980566E+00
 cg2d: Sum(rhs),rhsMax =  -9.97343434505638E-08  8.69412416784580E+00
 cg2d: Sum(rhs),rhsMax =  -9.96773295014464E-08  8.69910085245627E+00
 cg2d: Sum(rhs),rhsMax =  -9.96202871306195E-08  8.70409517445086E+00
 cg2d: Sum(rhs),rhsMax =  -9.95629250155616E-08  8.70911095741398E+00
 cg2d: Sum(rhs),rhsMax =  -9.95059110664442E-08  8.71415148969223E+00
 cg2d: Sum(rhs),rhsMax =  -9.94480160443345E-08  8.71921930590513E+00
 cg2d: Sum(rhs),rhsMax =  -9.93902702361993E-08  8.72431607432102E+00
 cg2d: Sum(rhs),rhsMax =  -9.93317215147727E-08  8.72944261226047E+00
 cg2d: Sum(rhs),rhsMax =  -9.92735280647139E-08  8.73459893266904E+00
 cg2d: Sum(rhs),rhsMax =  -9.92147448641845E-08  8.73978430818157E+00
 cg2d: Sum(rhs),rhsMax =  -9.91560966667748E-08  8.74499735837366E+00
 cg2d: Sum(rhs),rhsMax =  -9.90966526615011E-08  8.75023614706347E+00
 cg2d: Sum(rhs),rhsMax =  -9.90366970654577E-08  8.75549829188909E+00
 cg2d: Sum(rhs),rhsMax =  -9.89772743764661E-08  8.76078107848702E+00
 cg2d: Sum(rhs),rhsMax =  -9.89177024735000E-08  8.76608155580086E+00
 cg2d: Sum(rhs),rhsMax =  -9.88579742511320E-08  8.77139664107964E+00
 cg2d: Sum(rhs),rhsMax =  -9.87977060162848E-08  8.77672320795606E+00
 cg2d: Sum(rhs),rhsMax =  -9.87382264838743E-08  8.78205816635757E+00
(PID.TID 0000.0001) Did not write pickup because writePickupAtEnd = FALSE
 DIC_SURFFORCING_INIT, it=   3600000 : Reading new data, i0,i1=   12    1
 QQ: pCO2 approximation method
 QQ first guess pH 8.2869849781645275,  7.129213793781922,  34.1535348423009,  2.0282,  5.43799999999999991E-4,  8.08490416966378689E-3,  2.3086000000000002
(PID.TID 0000.0001) // =======================================================
(PID.TID 0000.0001) // Model current state
(PID.TID 0000.0001) // =======================================================
(PID.TID 0000.0001) 
 EXTERNAL_FIELDS_LOAD, it=   3600000 : Reading new data, i0,i1=   12    1 (prev=   12    0 )
 DIC_FIELDS_LOAD, it=   3600000 : Reading new data, i0,i1=   12    1 (prev=   12    0 )
 cg2d: Sum(rhs),rhsMax =  -9.92433868418630E-08  8.73439671821315E+00
 cg2d: Sum(rhs),rhsMax =  -9.91844260056496E-08  8.73957958587058E+00
 cg2d: Sum(rhs),rhsMax =  -9.91252449011881E-08  8.74478969091806E+00
 cg2d: Sum(rhs),rhsMax =  -9.90665185440776E-08  8.75002495477880E+00
 cg2d: Sum(rhs),rhsMax =  -9.90068542705558E-08  8.75528284057604E+00
 cg2d: Sum(rhs),rhsMax =  -9.89473534218632E-08  8.76056047500076E+00
 cg2d: Sum(rhs),rhsMax =  -9.88878241514612E-08  8.76585475900637E+00
 cg2d: Sum(rhs),rhsMax =  -9.88279893476829E-08  8.77116249138180E+00
 cg2d: Sum(rhs),rhsMax =  -9.87682469144602E-08  8.77648047471154E+00
 cg2d: Sum(rhs),rhsMax =  -9.87087602766223E-08  8.78180560756084E+00
 cg2d: Sum(rhs),rhsMax =  -9.86489112619893E-08  8.78713494778165E+00
 cg2d: Sum(rhs),rhsMax =  -9.85891404070571E-08  8.79246575399440E+00
 cg2d: Sum(rhs),rhsMax =  -9.85293340249882E-08  8.79779549299699E+00
 cg2d: Sum(rhs),rhsMax =  -9.84700747608258E-08  8.80312181092759E+00
 cg2d: Sum(rhs),rhsMax =  -9.84108581292276E-08  8.80844249631459E+00
 cg2d: Sum(rhs),rhsMax =  -9.83516486030567E-08  8.81375547068360E+00
 cg2d: Sum(rhs),rhsMax =  -9.82926522397065E-08  8.81905885446822E+00
 cg2d: Sum(rhs),rhsMax =  -9.82337553523394E-08  8.82435106608147E+00
 cg2d: Sum(rhs),rhsMax =  -9.81751568929212E-08  8.82963093738125E+00
 cg2d: Sum(rhs),rhsMax =  -9.81166650149135E-08  8.83489782452132E+00
 cg2d: Sum(rhs),rhsMax =  -9.80585213028462E-08  8.84015168145881E+00
 cg2d: Sum(rhs),rhsMax =  -9.80007470730015E-08  8.84539306572338E+00
 cg2d: Sum(rhs),rhsMax =  -9.79429586323022E-08  8.85062306296846E+00
 cg2d: Sum(rhs),rhsMax =  -9.78853904598509E-08  8.85584316140559E+00
 cg2d: Sum(rhs),rhsMax =  -9.78280425556477E-08  8.86105508303604E+00
 cg2d: Sum(rhs),rhsMax =  -9.77709291305473E-08  8.86626061391844E+00
 cg2d: Sum(rhs),rhsMax =  -9.77132472712583E-08  8.87146147123075E+00
 cg2d: Sum(rhs),rhsMax =  -9.76563327981239E-08  8.87665923110881E+00
 cg2d: Sum(rhs),rhsMax =  -9.75990843699037E-08  8.88185530584736E+00
 cg2d: Sum(rhs),rhsMax =  -9.75420704207863E-08  8.88705095973601E+00
 EXTERNAL_FIELDS_LOAD, it=   3600030 : Reading new data, i0,i1=    1    2 (prev=   12    1 )
 DIC_FIELDS_LOAD, it=   3600030 : Reading new data, i0,i1=    1    2 (prev=   12    1 )
 cg2d: Sum(rhs),rhsMax =  -9.74853406887632E-08  8.89224735691429E+00
 cg2d: Sum(rhs),rhsMax =  -9.74287814869967E-08  8.89742706375180E+00
 cg2d: Sum(rhs),rhsMax =  -9.73723857100595E-08  8.90258000132907E+00
 cg2d: Sum(rhs),rhsMax =  -9.73164659967551E-08  8.90769672951691E+00
 cg2d: Sum(rhs),rhsMax =  -9.72612284044772E-08  8.91276878246959E+00
 cg2d: Sum(rhs),rhsMax =  -9.72070637317302E-08  8.91778889429735E+00
 cg2d: Sum(rhs),rhsMax =  -9.71530482729577E-08  8.92275113682099E+00
 cg2d: Sum(rhs),rhsMax =  -9.70993241367069E-08  8.92765100404361E+00
 cg2d: Sum(rhs),rhsMax =  -9.70471916161841E-08  8.93248545016401E+00
 cg2d: Sum(rhs),rhsMax =  -9.69955280538670E-08  8.93725287491615E+00
 cg2d: Sum(rhs),rhsMax =  -9.69441273923621E-08  8.94195305183593E+00
 cg2d: Sum(rhs),rhsMax =  -9.68941833434656E-08  8.94658701582531E+00
 cg2d: Sum(rhs),rhsMax =  -9.68450208915783E-08  8.95115692214719E+00
 cg2d: Sum(rhs),rhsMax =  -9.67962705544778E-08  8.95566589123099E+00
 cg2d: Sum(rhs),rhsMax =  -9.67482165492584E-08  8.96011786358850E+00
 cg2d: Sum(rhs),rhsMax =  -9.67008020325011E-08  8.96451747891563E+00
 cg2d: Sum(rhs),rhsMax =  -9.66539346336504E-08  8.96886998187158E+00
 cg2d: Sum(rhs),rhsMax =  -9.66078843589457E-08  8.97318115409823E+00
 cg2d: Sum(rhs),rhsMax =  -9.65621254067628E-08  8.97745726495199E+00
 cg2d: Sum(rhs),rhsMax =  -9.65159685506478E-08  8.98170502198163E+00
 cg2d: Sum(rhs),rhsMax =  -9.64709272466280E-08  8.98593151889555E+00
 cg2d: Sum(rhs),rhsMax =  -9.64258006774799E-08  8.99014423145949E+00
 cg2d: Sum(rhs),rhsMax =  -9.63806954246138E-08  8.99435085408351E+00
 cg2d: Sum(rhs),rhsMax =  -9.63354978011921E-08  8.99855914272681E+00
 cg2d: Sum(rhs),rhsMax =  -9.62904493917449E-08  9.00277662786875E+00
 cg2d: Sum(rhs),rhsMax =  -9.62449746566563E-08  9.00700998220796E+00
 cg2d: Sum(rhs),rhsMax =  -9.61997557169525E-08  9.01126574761483E+00
 cg2d: Sum(rhs),rhsMax =  -9.61540180810516E-08  9.01555039729210E+00
 cg2d: Sum(rhs),rhsMax =  -9.61077120109621E-08  9.01986971435378E+00
 cg2d: Sum(rhs),rhsMax =  -9.60613775191632E-08  9.02422880815445E+00
 cg2d: Sum(rhs),rhsMax =  -9.60143182737738E-08  9.02863205182447E+00
 cg2d: Sum(rhs),rhsMax =  -9.59668398081703E-08  9.03308295193821E+00
 cg2d: Sum(rhs),rhsMax =  -9.59189492277801E-08  9.03758400719746E+00
 cg2d: Sum(rhs),rhsMax =  -9.58706323217484E-08  9.04213663854453E+00
 cg2d: Sum(rhs),rhsMax =  -9.58215622404168E-08  9.04674109185253E+00
 cg2d: Sum(rhs),rhsMax =  -9.57721724148541E-08  9.05139640217902E+00
 cg2d: Sum(rhs),rhsMax =  -9.57223775799321E-08  9.05610040614876E+00
 cg2d: Sum(rhs),rhsMax =  -9.56718224642827E-08  9.06084979109159E+00
 cg2d: Sum(rhs),rhsMax =  -9.56211039238042E-08  9.06564017672268E+00
 cg2d: Sum(rhs),rhsMax =  -9.55700798499493E-08  9.07046622792088E+00
 cg2d: Sum(rhs),rhsMax =  -9.55189918272481E-08  9.07532179655311E+00
 cg2d: Sum(rhs),rhsMax =  -9.54672145780933E-08  9.08020008054443E+00
 cg2d: Sum(rhs),rhsMax =  -9.54156860188959E-08  9.08509379067778E+00
 cg2d: Sum(rhs),rhsMax =  -9.53640864054250E-08  9.08999532389517E+00
 cg2d: Sum(rhs),rhsMax =  -9.53120391500306E-08  9.09489685062687E+00
 cg2d: Sum(rhs),rhsMax =  -9.52604963799786E-08  9.09979078670731E+00
 cg2d: Sum(rhs),rhsMax =  -9.52091738781746E-08  9.10466952325132E+00
 cg2d: Sum(rhs),rhsMax =  -9.51581995423112E-08  9.10952586151125E+00
 cg2d: Sum(rhs),rhsMax =  -9.51075378452515E-08  9.11435305322486E+00
 cg2d: Sum(rhs),rhsMax =  -9.50568974644739E-08  9.11914489544444E+00
 cg2d: Sum(rhs),rhsMax =  -9.50070173644235E-08  9.12389583482653E+00
 cg2d: Sum(rhs),rhsMax =  -9.49582670273230E-08  9.12860106773695E+00
 cg2d: Sum(rhs),rhsMax =  -9.49094669522310E-08  9.13325671324743E+00
 cg2d: Sum(rhs),rhsMax =  -9.48612637330370E-08  9.13785989332165E+00
 cg2d: Sum(rhs),rhsMax =  -9.48139060596986E-08  9.14240888612431E+00
 cg2d: Sum(rhs),rhsMax =  -9.47671381368309E-08  9.14690322805975E+00
 cg2d: Sum(rhs),rhsMax =  -9.47210025969980E-08  9.15134376400067E+00
 cg2d: Sum(rhs),rhsMax =  -9.46753857533622E-08  9.15573262291172E+00
 cg2d: Sum(rhs),rhsMax =  -9.46305078741716E-08  9.16007311317651E+00
 cg2d: Sum(rhs),rhsMax =  -9.45855020972886E-08  9.16436954661381E+00
 EXTERNAL_FIELDS_LOAD, it=   3600090 : Reading new data, i0,i1=    2    3 (prev=    1    2 )
 DIC_FIELDS_LOAD, it=   3600090 : Reading new data, i0,i1=    2    3 (prev=    1    2 )
 cg2d: Sum(rhs),rhsMax =  -9.45416047670733E-08  9.16862700792054E+00
 cg2d: Sum(rhs),rhsMax =  -9.44977784911316E-08  9.17286965792043E+00
 cg2d: Sum(rhs),rhsMax =  -9.44538882663437E-08  9.17711460232796E+00
 cg2d: Sum(rhs),rhsMax =  -9.44097777733077E-08  9.18137827264839E+00
 cg2d: Sum(rhs),rhsMax =  -9.43655606988614E-08  9.18567586102450E+00
 cg2d: Sum(rhs),rhsMax =  -9.43208533499273E-08  9.19002086507332E+00
 cg2d: Sum(rhs),rhsMax =  -9.42755065125311E-08  9.19442473147613E+00
 cg2d: Sum(rhs),rhsMax =  -9.42294988703907E-08  9.19889660310093E+00
 cg2d: Sum(rhs),rhsMax =  -9.41831217460276E-08  9.20344317156002E+00
 cg2d: Sum(rhs),rhsMax =  -9.41357711781166E-08  9.20806863385625E+00
 cg2d: Sum(rhs),rhsMax =  -9.40875679589226E-08  9.21277472508850E+00
 cg2d: Sum(rhs),rhsMax =  -9.40387323566938E-08  9.21756082935263E+00
 cg2d: Sum(rhs),rhsMax =  -9.39891506845925E-08  9.22242415169496E+00
 cg2d: Sum(rhs),rhsMax =  -9.39387589937724E-08  9.22735992735964E+00
 cg2d: Sum(rhs),rhsMax =  -9.38874578082505E-08  9.23236166048178E+00
 cg2d: Sum(rhs),rhsMax =  -9.38360713576003E-08  9.23742136926884E+00
 cg2d: Sum(rhs),rhsMax =  -9.37847204340869E-08  9.24252982829311E+00
 cg2d: Sum(rhs),rhsMax =  -9.37326518624104E-08  9.24767682825910E+00
 cg2d: Sum(rhs),rhsMax =  -9.36799651185538E-08  9.25285135651627E+00
 cg2d: Sum(rhs),rhsMax =  -9.36278468088858E-08  9.25804181556396E+00
 cg2d: Sum(rhs),rhsMax =  -9.35753803332773E-08  9.26323624437734E+00
 cg2d: Sum(rhs),rhsMax =  -9.35233543941649E-08  9.26842252954541E+00
 cg2d: Sum(rhs),rhsMax =  -9.34712076627875E-08  9.27358855590945E+00
 cg2d: Sum(rhs),rhsMax =  -9.34198851609835E-08  9.27872221865362E+00
 cg2d: Sum(rhs),rhsMax =  -9.33687331894362E-08  9.28381269175841E+00
 cg2d: Sum(rhs),rhsMax =  -9.33183130769066E-08  9.28884990364347E+00
 cg2d: Sum(rhs),rhsMax =  -9.32684542931383E-08  9.29382460831193E+00
 cg2d: Sum(rhs),rhsMax =  -9.32194410552256E-08  9.29872876125425E+00
 cg2d: Sum(rhs),rhsMax =  -9.31711383600486E-08  9.30355578941157E+00
 cg2d: Sum(rhs),rhsMax =  -9.31240364820951E-08  9.30830071441787E+00
 cg2d: Sum(rhs),rhsMax =  -9.30773893514925E-08  9.31296016039586E+00
 cg2d: Sum(rhs),rhsMax =  -9.30318719838397E-08  9.31753230345820E+00
 cg2d: Sum(rhs),rhsMax =  -9.29872783217434E-08  9.32201677457960E+00
 cg2d: Sum(rhs),rhsMax =  -9.29437931063148E-08  9.32641453687162E+00
 cg2d: Sum(rhs),rhsMax =  -9.29007910599466E-08  9.33072777407330E+00
 cg2d: Sum(rhs),rhsMax =  -9.28590253579387E-08  9.33495977832897E+00
 cg2d: Sum(rhs),rhsMax =  -9.28177001924269E-08  9.33911483571782E+00
 cg2d: Sum(rhs),rhsMax =  -9.27770358316593E-08  9.34319809772528E+00
 cg2d: Sum(rhs),rhsMax =  -9.27373591252945E-08  9.34721542637213E+00
 cg2d: Sum(rhs),rhsMax =  -9.26982295368362E-08  9.35117321728378E+00
 cg2d: Sum(rhs),rhsMax =  -9.26594978523099E-08  9.35507820898651E+00
 cg2d: Sum(rhs),rhsMax =  -9.26212777585533E-08  9.35893728101038E+00
 cg2d: Sum(rhs),rhsMax =  -9.25836900478316E-08  9.36275724876052E+00
 cg2d: Sum(rhs),rhsMax =  -9.25467347201447E-08  9.36654466497940E+00
 cg2d: Sum(rhs),rhsMax =  -9.25093388559617E-08  9.37030563739009E+00
 cg2d: Sum(rhs),rhsMax =  -9.24723693174201E-08  9.37404566529748E+00
 cg2d: Sum(rhs),rhsMax =  -9.24358261045199E-08  9.37776950669782E+00
 cg2d: Sum(rhs),rhsMax =  -9.23998015878169E-08  9.38148107939576E+00
 cg2d: Sum(rhs),rhsMax =  -9.23633649563271E-08  9.38518340080342E+00
 cg2d: Sum(rhs),rhsMax =  -9.23271628039402E-08  9.38887856431341E+00
 cg2d: Sum(rhs),rhsMax =  -9.22907545941598E-08  9.39256775253961E+00
 cg2d: Sum(rhs),rhsMax =  -9.22549361348501E-08  9.39625127829926E+00
 cg2d: Sum(rhs),rhsMax =  -9.22186487173349E-08  9.39992865313115E+00
 cg2d: Sum(rhs),rhsMax =  -9.21831713185384E-08  9.40359867110262E+00
 cg2d: Sum(rhs),rhsMax =  -9.21473457538013E-08  9.40725949891390E+00
 cg2d: Sum(rhs),rhsMax =  -9.21119038821416E-08  9.41090875978471E+00
 cg2d: Sum(rhs),rhsMax =  -9.20763412182168E-08  9.41454361858659E+00
 cg2d: Sum(rhs),rhsMax =  -9.20410343496769E-08  9.41816086827301E+00
 cg2d: Sum(rhs),rhsMax =  -9.20060685416502E-08  9.42175701532902E+00
 cg2d: Sum(rhs),rhsMax =  -9.19711879987517E-08  9.42532836100955E+00
 EXTERNAL_FIELDS_LOAD, it=   3600150 : Reading new data, i0,i1=    3    4 (prev=    2    3 )
 DIC_FIELDS_LOAD, it=   3600150 : Reading new data, i0,i1=    3    4 (prev=    2    3 )
 cg2d: Sum(rhs),rhsMax =  -9.19367622032041E-08  9.42887108055882E+00
 cg2d: Sum(rhs),rhsMax =  -9.19030327395376E-08  9.43235832256638E+00
 cg2d: Sum(rhs),rhsMax =  -9.18696727580937E-08  9.43577294710938E+00
 cg2d: Sum(rhs),rhsMax =  -9.18375349101552E-08  9.43909901719340E+00
 cg2d: Sum(rhs),rhsMax =  -9.18056457521743E-08  9.44232226351574E+00
 cg2d: Sum(rhs),rhsMax =  -9.17754618967592E-08  9.44543045713848E+00
 cg2d: Sum(rhs),rhsMax =  -9.17468696570722E-08  9.44841368652191E+00
 cg2d: Sum(rhs),rhsMax =  -9.17188671678559E-08  9.45126453300903E+00
 cg2d: Sum(rhs),rhsMax =  -9.16929749905648E-08  9.45397814472091E+00
 cg2d: Sum(rhs),rhsMax =  -9.16680278351123E-08  9.45655223330268E+00
 cg2d: Sum(rhs),rhsMax =  -9.16445941356869E-08  9.45898700078271E+00
 cg2d: Sum(rhs),rhsMax =  -9.16223754643397E-08  9.46128500172268E+00
 cg2d: Sum(rhs),rhsMax =  -9.16011231311131E-08  9.46345095767279E+00
 cg2d: Sum(rhs),rhsMax =  -9.15811568802383E-08  9.46549153513779E+00
 cg2d: Sum(rhs),rhsMax =  -9.15625619768434E-08  9.46741508859273E+00
 cg2d: Sum(rhs),rhsMax =  -9.15451252581079E-08  9.46923137659912E+00
 cg2d: Sum(rhs),rhsMax =  -9.15285980340741E-08  9.47095124324780E+00
 cg2d: Sum(rhs),rhsMax =  -9.15126108225195E-08  9.47258633929544E+00
 cg2d: Sum(rhs),rhsMax =  -9.14974762622478E-08  9.47414881667898E+00
 cg2d: Sum(rhs),rhsMax =  -9.14831588261222E-08  9.47565102854520E+00
 cg2d: Sum(rhs),rhsMax =  -9.14691185016636E-08  9.47710524161440E+00
 cg2d: Sum(rhs),rhsMax =  -9.14552913400257E-08  9.47852337330871E+00
 cg2d: Sum(rhs),rhsMax =  -9.14417910280463E-08  9.47991675839448E+00
 cg2d: Sum(rhs),rhsMax =  -9.14288023068366E-08  9.48129594936036E+00
 cg2d: Sum(rhs),rhsMax =  -9.14153162057119E-08  9.48267055268677E+00
 cg2d: Sum(rhs),rhsMax =  -9.14016951014673E-08  9.48404910672501E+00
 cg2d: Sum(rhs),rhsMax =  -9.13883866360266E-08  9.48543898881096E+00
 cg2d: Sum(rhs),rhsMax =  -9.13749147457565E-08  9.48684634838855E+00
 cg2d: Sum(rhs),rhsMax =  -9.13611231112554E-08  9.48827608016959E+00
 cg2d: Sum(rhs),rhsMax =  -9.13465854068818E-08  9.48973182637241E+00
 cg2d: Sum(rhs),rhsMax =  -9.13324456064402E-08  9.49121598932757E+00
 cg2d: Sum(rhs),rhsMax =  -9.13176805283911E-08  9.49272976482376E+00
 cg2d: Sum(rhs),rhsMax =  -9.13029793991882E-08  9.49427318407705E+00
 cg2d: Sum(rhs),rhsMax =  -9.12876600978052E-08  9.49584517202971E+00
 cg2d: Sum(rhs),rhsMax =  -9.12722768475760E-08  9.49744362566448E+00
 cg2d: Sum(rhs),rhsMax =  -9.12563962174318E-08  9.49906550905340E+00
 cg2d: Sum(rhs),rhsMax =  -9.12406292741252E-08  9.50070696299551E+00
 cg2d: Sum(rhs),rhsMax =  -9.12245567974423E-08  9.50236342680402E+00
 cg2d: Sum(rhs),rhsMax =  -9.12086122184519E-08  9.50402976802920E+00
 cg2d: Sum(rhs),rhsMax =  -9.11920636781360E-08  9.50570042893596E+00
 cg2d: Sum(rhs),rhsMax =  -9.11760835720088E-08  9.50736956748404E+00
 cg2d: Sum(rhs),rhsMax =  -9.11599897790438E-08  9.50903122489705E+00
 cg2d: Sum(rhs),rhsMax =  -9.11439812512072E-08  9.51067944299842E+00
 cg2d: Sum(rhs),rhsMax =  -9.11286619498242E-08  9.51230836255520E+00
 cg2d: Sum(rhs),rhsMax =  -9.11128452685261E-08  9.51391232343393E+00
 cg2d: Sum(rhs),rhsMax =  -9.10978172896648E-08  9.51548598638282E+00
 cg2d: Sum(rhs),rhsMax =  -9.10825903588375E-08  9.51702443978652E+00
 cg2d: Sum(rhs),rhsMax =  -9.10679744947629E-08  9.51852327194360E+00
 cg2d: Sum(rhs),rhsMax =  -9.10538062726118E-08  9.51997861079381E+00
 cg2d: Sum(rhs),rhsMax =  -9.10403272769145E-08  9.52138713289450E+00
 cg2d: Sum(rhs),rhsMax =  -9.10271680254482E-08  9.52274605554116E+00
 cg2d: Sum(rhs),rhsMax =  -9.10143498344951E-08  9.52405313717331E+00
 cg2d: Sum(rhs),rhsMax =  -9.10022919242692E-08  9.52530666028232E+00
 cg2d: Sum(rhs),rhsMax =  -9.09905324419924E-08  9.52650541109617E+00
 cg2d: Sum(rhs),rhsMax =  -9.09794692915966E-08  9.52764864727963E+00
 cg2d: Sum(rhs),rhsMax =  -9.09689816808168E-08  9.52873605079492E+00
 cg2d: Sum(rhs),rhsMax =  -9.09588422359775E-08  9.52976767849440E+00
 cg2d: Sum(rhs),rhsMax =  -9.09493280687457E-08  9.53074391639987E+00
 cg2d: Sum(rhs),rhsMax =  -9.09404391791213E-08  9.53166530103624E+00
 cg2d: Sum(rhs),rhsMax =  -9.09316284491979E-08  9.53253252588939E+00
 EXTERNAL_FIELDS_LOAD, it=   3600210 : Reading new data, i0,i1=    4    5 (prev=    3    4 )
 DIC_FIELDS_LOAD, it=   3600210 : Reading new data, i0,i1=    4    5 (prev=    3    4 )
 cg2d: Sum(rhs),rhsMax =  -9.09236845814121E-08  9.53334634295211E+00
 cg2d: Sum(rhs),rhsMax =  -9.09162238826866E-08  9.53412016630968E+00
 cg2d: Sum(rhs),rhsMax =  -9.09088555545168E-08  9.53486144691540E+00
 cg2d: Sum(rhs),rhsMax =  -9.09020556605356E-08  9.53557668814411E+00
 cg2d: Sum(rhs),rhsMax =  -9.08950781308704E-08  9.53626990934916E+00
 cg2d: Sum(rhs),rhsMax =  -9.08885269268467E-08  9.53694479201801E+00
 cg2d: Sum(rhs),rhsMax =  -9.08819686173956E-08  9.53760402798875E+00
 cg2d: Sum(rhs),rhsMax =  -9.08758792661502E-08  9.53824943192211E+00
 cg2d: Sum(rhs),rhsMax =  -9.08692001644340E-08  9.53888215688552E+00
 cg2d: Sum(rhs),rhsMax =  -9.08633310814366E-08  9.53950304357000E+00
 cg2d: Sum(rhs),rhsMax =  -9.08575117364308E-08  9.54011304176576E+00
 cg2d: Sum(rhs),rhsMax =  -9.08516142317239E-08  9.54071301635899E+00
 cg2d: Sum(rhs),rhsMax =  -9.08458943627011E-08  9.54130322912294E+00
 cg2d: Sum(rhs),rhsMax =  -9.08400252797037E-08  9.54188272003942E+00
 cg2d: Sum(rhs),rhsMax =  -9.08349306882883E-08  9.54244934290944E+00
 cg2d: Sum(rhs),rhsMax =  -9.08295305634965E-08  9.54299999628384E+00
 cg2d: Sum(rhs),rhsMax =  -9.08241872821236E-08  9.54353092308816E+00
 cg2d: Sum(rhs),rhsMax =  -9.08189861092978E-08  9.54403796863502E+00
 cg2d: Sum(rhs),rhsMax =  -9.08142894218145E-08  9.54451678452915E+00
 cg2d: Sum(rhs),rhsMax =  -9.08097916862971E-08  9.54496303374895E+00
 cg2d: Sum(rhs),rhsMax =  -9.08056705384297E-08  9.54537256688658E+00
 cg2d: Sum(rhs),rhsMax =  -9.08016417611179E-08  9.54574155534994E+00
 cg2d: Sum(rhs),rhsMax =  -9.07979256226099E-08  9.54606657177462E+00
 cg2d: Sum(rhs),rhsMax =  -9.07952681927782E-08  9.54634467959792E+00
 cg2d: Sum(rhs),rhsMax =  -9.07924189164078E-08  9.54657345840157E+00
 cg2d: Sum(rhs),rhsMax =  -9.07902162339269E-08  9.54675102924543E+00
 cg2d: Sum(rhs),rhsMax =  -9.07886743561903E-08  9.54687605379506E+00
 cg2d: Sum(rhs),rhsMax =  -9.07877648614885E-08  9.54694771403842E+00
 cg2d: Sum(rhs),rhsMax =  -9.07869193156330E-08  9.54696566951997E+00
 cg2d: Sum(rhs),rhsMax =  -9.07865995714019E-08  9.54692999068711E+00
 cg2d: Sum(rhs),rhsMax =  -9.07872106381546E-08  9.54684108541375E+00
 cg2d: Sum(rhs),rhsMax =  -9.07884682987969E-08  9.54669963264824E+00
 cg2d: Sum(rhs),rhsMax =  -9.07898467517043E-08  9.54650651972953E+00
 cg2d: Sum(rhs),rhsMax =  -9.07915449488428E-08  9.54626274758502E+00
 cg2d: Sum(rhs),rhsMax =  -9.07941455352557E-08  9.54596935750525E+00
 cg2d: Sum(rhs),rhsMax =  -9.07970800767544E-08  9.54562738075971E+00
 cg2d: Sum(rhs),rhsMax =  -9.08000501453898E-08  9.54523778248193E+00
 cg2d: Sum(rhs),rhsMax =  -9.08038089164620E-08  9.54480140259877E+00
 cg2d: Sum(rhs),rhsMax =  -9.08078732209106E-08  9.54431888382345E+00
 cg2d: Sum(rhs),rhsMax =  -9.08128896526250E-08  9.54379063440704E+00
 cg2d: Sum(rhs),rhsMax =  -9.08179274006216E-08  9.54321682610369E+00
 cg2d: Sum(rhs),rhsMax =  -9.08231072571652E-08  9.54259741627488E+00
 cg2d: Sum(rhs),rhsMax =  -9.08294239820862E-08  9.54193218180504E+00
 cg2d: Sum(rhs),rhsMax =  -9.08357407070071E-08  9.54122075566689E+00
 cg2d: Sum(rhs),rhsMax =  -9.08426116552619E-08  9.54046266149910E+00
 cg2d: Sum(rhs),rhsMax =  -9.08497668206110E-08  9.53965734943055E+00
 cg2d: Sum(rhs),rhsMax =  -9.08576467395505E-08  9.53880424419014E+00
 cg2d: Sum(rhs),rhsMax =  -9.08659032461401E-08  9.53790282192021E+00
 cg2d: Sum(rhs),rhsMax =  -9.08746713434994E-08  9.53695268180845E+00
 cg2d: Sum(rhs),rhsMax =  -9.08840078750472E-08  9.53595362230667E+00
 cg2d: Sum(rhs),rhsMax =  -9.08936215182621E-08  9.53490571447803E+00
 cg2d: Sum(rhs),rhsMax =  -9.09042654484438E-08  9.53380930168364E+00
 cg2d: Sum(rhs),rhsMax =  -9.09145470018302E-08  9.53266493640869E+00
 cg2d: Sum(rhs),rhsMax =  -9.09259227910297E-08  9.53147332889492E+00
 cg2d: Sum(rhs),rhsMax =  -9.09384141323244E-08  9.53023537646442E+00
 cg2d: Sum(rhs),rhsMax =  -9.09505217805417E-08  9.52895220993865E+00
 cg2d: Sum(rhs),rhsMax =  -9.09629278567081E-08  9.52762520262973E+00
 cg2d: Sum(rhs),rhsMax =  -9.09757815747980E-08  9.52625594300855E+00
 cg2d: Sum(rhs),rhsMax =  -9.09892747813501E-08  9.52484621149773E+00
 cg2d: Sum(rhs),rhsMax =  -9.10029882561503E-08  9.52339794221070E+00
 EXTERNAL_FIELDS_LOAD, it=   3600270 : Reading new data, i0,i1=    5    6 (prev=    4    5 )
 DIC_FIELDS_LOAD, it=   3600270 : Reading new data, i0,i1=    5    6 (prev=    4    5 )
 cg2d: Sum(rhs),rhsMax =  -9.10169930534721E-08  9.52191318167782E+00
 cg2d: Sum(rhs),rhsMax =  -9.10311257484864E-08  9.52041761022813E+00
 cg2d: Sum(rhs),rhsMax =  -9.10455213443129E-08  9.51892843351038E+00
 cg2d: Sum(rhs),rhsMax =  -9.10593485059508E-08  9.51746258399289E+00
 cg2d: Sum(rhs),rhsMax =  -9.10729625047679E-08  9.51603636817957E+00
 cg2d: Sum(rhs),rhsMax =  -9.10860507019606E-08  9.51466517931999E+00
 cg2d: Sum(rhs),rhsMax =  -9.10986344138109E-08  9.51336322967766E+00
 cg2d: Sum(rhs),rhsMax =  -9.11102233658312E-08  9.51214329321166E+00
 cg2d: Sum(rhs),rhsMax =  -9.11212367782355E-08  9.51101645114812E+00
 cg2d: Sum(rhs),rhsMax =  -9.11308219997409E-08  9.50999185515969E+00
 cg2d: Sum(rhs),rhsMax =  -9.11397606273567E-08  9.50907652378690E+00
 cg2d: Sum(rhs),rhsMax =  -9.11473847509114E-08  9.50827517814543E+00
 cg2d: Sum(rhs),rhsMax =  -9.11540354309182E-08  9.50759014752173E+00
 cg2d: Sum(rhs),rhsMax =  -9.11595421371203E-08  9.50702134377118E+00
 cg2d: Sum(rhs),rhsMax =  -9.11640682943471E-08  9.50656629011210E+00
 cg2d: Sum(rhs),rhsMax =  -9.11673012637948E-08  9.50622019182364E+00
 cg2d: Sum(rhs),rhsMax =  -9.11696744765322E-08  9.50597606771963E+00
 cg2d: Sum(rhs),rhsMax =  -9.11708539774736E-08  9.50582494250500E+00
 cg2d: Sum(rhs),rhsMax =  -9.11716497853376E-08  9.50575608648473E+00
 cg2d: Sum(rhs),rhsMax =  -9.11714224116622E-08  9.50575729587021E+00
 cg2d: Sum(rhs),rhsMax =  -9.11708468720462E-08  9.50581523373235E+00
 cg2d: Sum(rhs),rhsMax =  -9.11699018502077E-08  9.50591575069248E+00
 cg2d: Sum(rhs),rhsMax =  -9.11685589244371E-08  9.50604420974297E+00
 cg2d: Sum(rhs),rhsMax =  -9.11669744141363E-08  9.50618583284504E+00
 cg2d: Sum(rhs),rhsMax =  -9.11656883317846E-08  9.50632606101357E+00
 cg2d: Sum(rhs),rhsMax =  -9.11643525114414E-08  9.50645090757042E+00
 cg2d: Sum(rhs),rhsMax =  -9.11635567035773E-08  9.50654729113363E+00
 cg2d: Sum(rhs),rhsMax =  -9.11632938027651E-08  9.50660334354173E+00
 cg2d: Sum(rhs),rhsMax =  -9.11633009081925E-08  9.50660868062301E+00
 cg2d: Sum(rhs),rhsMax =  -9.11639332912273E-08  9.50655462562515E+00
 cg2d: Sum(rhs),rhsMax =  -9.11649706836215E-08  9.50643436311089E+00
 cg2d: Sum(rhs),rhsMax =  -9.11672302095212E-08  9.50624304674150E+00
 cg2d: Sum(rhs),rhsMax =  -9.11696460548228E-08  9.50597781905916E+00
 cg2d: Sum(rhs),rhsMax =  -9.11727440211507E-08  9.50563777710892E+00
 cg2d: Sum(rhs),rhsMax =  -9.11770854372662E-08  9.50522393135291E+00
 cg2d: Sum(rhs),rhsMax =  -9.11816186999204E-08  9.50473911463816E+00
 cg2d: Sum(rhs),rhsMax =  -9.11870614572763E-08  9.50418773930678E+00
 cg2d: Sum(rhs),rhsMax =  -9.11928168534359E-08  9.50357558691374E+00
 cg2d: Sum(rhs),rhsMax =  -9.11992827923314E-08  9.50290964447458E+00
 cg2d: Sum(rhs),rhsMax =  -9.12065729608003E-08  9.50219791542795E+00
 cg2d: Sum(rhs),rhsMax =  -9.12139270781154E-08  9.50144918276843E+00
 cg2d: Sum(rhs),rhsMax =  -9.12212811954305E-08  9.50067274580360E+00
 cg2d: Sum(rhs),rhsMax =  -9.12293955934729E-08  9.49987815929010E+00
 cg2d: Sum(rhs),rhsMax =  -9.12369131356172E-08  9.49907498366882E+00
 cg2d: Sum(rhs),rhsMax =  -9.12447788437021E-08  9.49827255755378E+00
 cg2d: Sum(rhs),rhsMax =  -9.12528008711888E-08  9.49747978836020E+00
 cg2d: Sum(rhs),rhsMax =  -9.12602686753416E-08  9.49670496341604E+00
 cg2d: Sum(rhs),rhsMax =  -9.12679780640246E-08  9.49595558374171E+00
 cg2d: Sum(rhs),rhsMax =  -9.12747850634332E-08  9.49523821505845E+00
 cg2d: Sum(rhs),rhsMax =  -9.12811941589098E-08  9.49455836839740E+00
 cg2d: Sum(rhs),rhsMax =  -9.12878306280618E-08  9.49392042323925E+00
 cg2d: Sum(rhs),rhsMax =  -9.12937139219139E-08  9.49332754785973E+00
 cg2d: Sum(rhs),rhsMax =  -9.12992632606802E-08  9.49278165465699E+00
 cg2d: Sum(rhs),rhsMax =  -9.13035833605136E-08  9.49228339433203E+00
 cg2d: Sum(rhs),rhsMax =  -9.13086424247922E-08  9.49183218209292E+00
 cg2d: Sum(rhs),rhsMax =  -9.13127422563775E-08  9.49142625728328E+00
 cg2d: Sum(rhs),rhsMax =  -9.13163518134752E-08  9.49106276286301E+00
 cg2d: Sum(rhs),rhsMax =  -9.13194782015125E-08  9.49073783789306E+00
 cg2d: Sum(rhs),rhsMax =  -9.13225406407037E-08  9.49044672400271E+00
 cg2d: Sum(rhs),rhsMax =  -9.13253046519458E-08  9.49018390323782E+00
 EXTERNAL_FIELDS_LOAD, it=   3600330 : Reading new data, i0,i1=    6    7 (prev=    5    6 )
 DIC_FIELDS_LOAD, it=   3600330 : Reading new data, i0,i1=    6    7 (prev=    5    6 )
 cg2d: Sum(rhs),rhsMax =  -9.13276210212643E-08  9.48994325700856E+00
 cg2d: Sum(rhs),rhsMax =  -9.13303352945150E-08  9.48970801758053E+00
 cg2d: Sum(rhs),rhsMax =  -9.13328221940901E-08  9.48946471682098E+00
 cg2d: Sum(rhs),rhsMax =  -9.13353943587936E-08  9.48919980375378E+00
 cg2d: Sum(rhs),rhsMax =  -9.13383644274290E-08  9.48889996251626E+00
 cg2d: Sum(rhs),rhsMax =  -9.13418460868343E-08  9.48855235316500E+00
 cg2d: Sum(rhs),rhsMax =  -9.13461093432488E-08  9.48814487205053E+00
 cg2d: Sum(rhs),rhsMax =  -9.13508344524416E-08  9.48766639266868E+00
 cg2d: Sum(rhs),rhsMax =  -9.13563624749258E-08  9.48710698236420E+00
 cg2d: Sum(rhs),rhsMax =  -9.13624518261713E-08  9.48645808347463E+00
 cg2d: Sum(rhs),rhsMax =  -9.13698130489138E-08  9.48571268422533E+00
 cg2d: Sum(rhs),rhsMax =  -9.13783111400335E-08  9.48486545850383E+00
 cg2d: Sum(rhs),rhsMax =  -9.13876760932908E-08  9.48391285858374E+00
 cg2d: Sum(rhs),rhsMax =  -9.13977800109933E-08  9.48285315351105E+00
 cg2d: Sum(rhs),rhsMax =  -9.14093334358768E-08  9.48168641391458E+00
 cg2d: Sum(rhs),rhsMax =  -9.14215760872139E-08  9.48041445516485E+00
 cg2d: Sum(rhs),rhsMax =  -9.14348703418000E-08  9.47904073781749E+00
 cg2d: Sum(rhs),rhsMax =  -9.14490314585237E-08  9.47757022510765E+00
 cg2d: Sum(rhs),rhsMax =  -9.14641802296501E-08  9.47600920384239E+00
 cg2d: Sum(rhs),rhsMax =  -9.14802384954783E-08  9.47436507523804E+00
 cg2d: Sum(rhs),rhsMax =  -9.14970428311790E-08  9.47264612546539E+00
 cg2d: Sum(rhs),rhsMax =  -9.15143658630768E-08  9.47086128598380E+00
 cg2d: Sum(rhs),rhsMax =  -9.15317244221114E-08  9.46901988541289E+00
 cg2d: Sum(rhs),rhsMax =  -9.15503548526431E-08  9.46713139755286E+00
 cg2d: Sum(rhs),rhsMax =  -9.15688005420634E-08  9.46520519129246E+00
 cg2d: Sum(rhs),rhsMax =  -9.15879354579374E-08  9.46325027783096E+00
 cg2d: Sum(rhs),rhsMax =  -9.16070561629567E-08  9.46127510172983E+00
 cg2d: Sum(rhs),rhsMax =  -9.16269016215665E-08  9.45928736176468E+00
 cg2d: Sum(rhs),rhsMax =  -9.16458375854745E-08  9.45729384446051E+00
 cg2d: Sum(rhs),rhsMax =  -9.16652354021608E-08  9.45530032221759E+00
 cg2d: Sum(rhs),rhsMax =  -9.16847469056847E-08  9.45331147339530E+00
 cg2d: Sum(rhs),rhsMax =  -9.17041660386531E-08  9.45133082537812E+00
 cg2d: Sum(rhs),rhsMax =  -9.17234714847837E-08  9.44936073119909E+00
 cg2d: Sum(rhs),rhsMax =  -9.17423008672813E-08  9.44740238220463E+00
 cg2d: Sum(rhs),rhsMax =  -9.17614002560185E-08  9.44545585645758E+00
 cg2d: Sum(rhs),rhsMax =  -9.17801870059520E-08  9.44352020252140E+00
 cg2d: Sum(rhs),rhsMax =  -9.17989737558855E-08  9.44159355733174E+00
 cg2d: Sum(rhs),rhsMax =  -9.18179097197935E-08  9.43967327626014E+00
 cg2d: Sum(rhs),rhsMax =  -9.18367177860091E-08  9.43775607395104E+00
 cg2d: Sum(rhs),rhsMax =  -9.18552629514124E-08  9.43583817490269E+00
 cg2d: Sum(rhs),rhsMax =  -9.18742912858761E-08  9.43391546318717E+00
 cg2d: Sum(rhs),rhsMax =  -9.18933977800407E-08  9.43198362529795E+00
 cg2d: Sum(rhs),rhsMax =  -9.19123053222393E-08  9.43003828806143E+00
 cg2d: Sum(rhs),rhsMax =  -9.19319091963189E-08  9.42807514245689E+00
 cg2d: Sum(rhs),rhsMax =  -9.19516196518089E-08  9.42609005034801E+00
 cg2d: Sum(rhs),rhsMax =  -9.19711453661876E-08  9.42407914155286E+00
 cg2d: Sum(rhs),rhsMax =  -9.19916374186869E-08  9.42203890101561E+00
 cg2d: Sum(rhs),rhsMax =  -9.20122005254598E-08  9.41996625280574E+00
 cg2d: Sum(rhs),rhsMax =  -9.20328773190704E-08  9.41785862954787E+00
 cg2d: Sum(rhs),rhsMax =  -9.20541722848611E-08  9.41571402403211E+00
 cg2d: Sum(rhs),rhsMax =  -9.20761920042423E-08  9.41353104362712E+00
 cg2d: Sum(rhs),rhsMax =  -9.20975224971698E-08  9.41130897700722E+00
 cg2d: Sum(rhs),rhsMax =  -9.21202243375774E-08  9.40904782014454E+00
 cg2d: Sum(rhs),rhsMax =  -9.21427556477283E-08  9.40674826682519E+00
 cg2d: Sum(rhs),rhsMax =  -9.21658624974953E-08  9.40441167656376E+00
 cg2d: Sum(rhs),rhsMax =  -9.21897651551262E-08  9.40204003109270E+00
 cg2d: Sum(rhs),rhsMax =  -9.22136393910478E-08  9.39963588692061E+00
 cg2d: Sum(rhs),rhsMax =  -9.22377765277815E-08  9.39720232327049E+00
 cg2d: Sum(rhs),rhsMax =  -9.22617147125493E-08  9.39474287623570E+00
 cg2d: Sum(rhs),rhsMax =  -9.22866476571471E-08  9.39226147078604E+00
 EXTERNAL_FIELDS_LOAD, it=   3600390 : Reading new data, i0,i1=    7    8 (prev=    6    7 )
 DIC_FIELDS_LOAD, it=   3600390 : Reading new data, i0,i1=    7    8 (prev=    6    7 )
 cg2d: Sum(rhs),rhsMax =  -9.23120353490958E-08  9.38976233427929E+00
 cg2d: Sum(rhs),rhsMax =  -9.23369185557021E-08  9.38724381347799E+00
 cg2d: Sum(rhs),rhsMax =  -9.23620930848301E-08  9.38470550458213E+00
 cg2d: Sum(rhs),rhsMax =  -9.23878431535741E-08  9.38214640732935E+00
 cg2d: Sum(rhs),rhsMax =  -9.24133303215058E-08  9.37956498127073E+00
 cg2d: Sum(rhs),rhsMax =  -9.24395564538827E-08  9.37695924403383E+00
 cg2d: Sum(rhs),rhsMax =  -9.24659673273709E-08  9.37432689628576E+00
 cg2d: Sum(rhs),rhsMax =  -9.24926268908166E-08  9.37166545130188E+00
 cg2d: Sum(rhs),rhsMax =  -9.25199330481519E-08  9.36897236493602E+00
 cg2d: Sum(rhs),rhsMax =  -9.25472107837777E-08  9.36624514198210E+00
 cg2d: Sum(rhs),rhsMax =  -9.25749148450450E-08  9.36348144222541E+00
 cg2d: Sum(rhs),rhsMax =  -9.26027894365689E-08  9.36067916467522E+00
 cg2d: Sum(rhs),rhsMax =  -9.26316801042049E-08  9.35783651518778E+00
 cg2d: Sum(rhs),rhsMax =  -9.26604357687211E-08  9.35495205473915E+00
 cg2d: Sum(rhs),rhsMax =  -9.26899872411013E-08  9.35202472862356E+00
 cg2d: Sum(rhs),rhsMax =  -9.27198087197212E-08  9.34905386050751E+00
 cg2d: Sum(rhs),rhsMax =  -9.27502270542391E-08  9.34603912446753E+00
 cg2d: Sum(rhs),rhsMax =  -9.27809580275607E-08  9.34298052032945E+00
 cg2d: Sum(rhs),rhsMax =  -9.28122148025068E-08  9.33987837125357E+00
 cg2d: Sum(rhs),rhsMax =  -9.28438836922396E-08  9.33673332003228E+00
 cg2d: Sum(rhs),rhsMax =  -9.28756591633828E-08  9.33354631509102E+00
 cg2d: Sum(rhs),rhsMax =  -9.29085999246126E-08  9.33031856217985E+00
 cg2d: Sum(rhs),rhsMax =  -9.29414056827227E-08  9.32705144157814E+00
 cg2d: Sum(rhs),rhsMax =  -9.29742824951063E-08  9.32374640924821E+00
 cg2d: Sum(rhs),rhsMax =  -9.30079835370634E-08  9.32040491207867E+00
 cg2d: Sum(rhs),rhsMax =  -9.30417982658582E-08  9.31702830536998E+00
 cg2d: Sum(rhs),rhsMax =  -9.30764798567907E-08  9.31361778906816E+00
 cg2d: Sum(rhs),rhsMax =  -9.31104011669959E-08  9.31017435680010E+00
 cg2d: Sum(rhs),rhsMax =  -9.31454593455783E-08  9.30669874783390E+00
 cg2d: Sum(rhs),rhsMax =  -9.31809367443748E-08  9.30319140183628E+00
 cg2d: Sum(rhs),rhsMax =  -9.32159238686836E-08  9.29965242032067E+00
 cg2d: Sum(rhs),rhsMax =  -9.32518702256857E-08  9.29608155387300E+00
 cg2d: Sum(rhs),rhsMax =  -9.32883352788849E-08  9.29247816276956E+00
 cg2d: Sum(rhs),rhsMax =  -9.33245232204172E-08  9.28884120452690E+00
 cg2d: Sum(rhs),rhsMax =  -9.33613577558390E-08  9.28516924951164E+00
 cg2d: Sum(rhs),rhsMax =  -9.33982562401070E-08  9.28146051649491E+00
 cg2d: Sum(rhs),rhsMax =  -9.34364479121541E-08  9.27771291851975E+00
 cg2d: Sum(rhs),rhsMax =  -9.34740143065937E-08  9.27392411497484E+00
 cg2d: Sum(rhs),rhsMax =  -9.35126251988549E-08  9.27009157616147E+00
 cg2d: Sum(rhs),rhsMax =  -9.35518329470142E-08  9.26621266064052E+00
 cg2d: Sum(rhs),rhsMax =  -9.35912964905583E-08  9.26228469753356E+00
 cg2d: Sum(rhs),rhsMax =  -9.36311082000429E-08  9.25830502540661E+00
 cg2d: Sum(rhs),rhsMax =  -9.36718080879473E-08  9.25427104022615E+00
 cg2d: Sum(rhs),rhsMax =  -9.37130835154676E-08  9.25018025806528E+00
 cg2d: Sum(rhs),rhsMax =  -9.37547639523473E-08  9.24603037476154E+00
 cg2d: Sum(rhs),rhsMax =  -9.37974888870485E-08  9.24181932462259E+00
 cg2d: Sum(rhs),rhsMax =  -9.38402919814507E-08  9.23754533703139E+00
 cg2d: Sum(rhs),rhsMax =  -9.38843172093584E-08  9.23320698439808E+00
 cg2d: Sum(rhs),rhsMax =  -9.39290814017113E-08  9.22880321317793E+00
 cg2d: Sum(rhs),rhsMax =  -9.39739734917566E-08  9.22433335164241E+00
 cg2d: Sum(rhs),rhsMax =  -9.40200521881707E-08  9.21979710173837E+00
 cg2d: Sum(rhs),rhsMax =  -9.40667135296280E-08  9.21519452384442E+00
 cg2d: Sum(rhs),rhsMax =  -9.41140712029664E-08  9.21052602027441E+00
 cg2d: Sum(rhs),rhsMax =  -9.41621181027585E-08  9.20579231856880E+00
 cg2d: Sum(rhs),rhsMax =  -9.42108115964402E-08  9.20099445172383E+00
 cg2d: Sum(rhs),rhsMax =  -9.42603506359774E-08  9.19613373409314E+00
 cg2d: Sum(rhs),rhsMax =  -9.43106570616692E-08  9.19121172891709E+00
 cg2d: Sum(rhs),rhsMax =  -9.43619582471911E-08  9.18623021276131E+00
 cg2d: Sum(rhs),rhsMax =  -9.44129254776271E-08  9.18119115032627E+00
 cg2d: Sum(rhs),rhsMax =  -9.44648874678933E-08  9.17609666859133E+00
 EXTERNAL_FIELDS_LOAD, it=   3600450 : Reading new data, i0,i1=    8    9 (prev=    7    8 )
 DIC_FIELDS_LOAD, it=   3600450 : Reading new data, i0,i1=    8    9 (prev=    7    8 )
 cg2d: Sum(rhs),rhsMax =  -9.45180929079470E-08  9.17094900539886E+00
 cg2d: Sum(rhs),rhsMax =  -9.45713196642828E-08  9.16576037761048E+00
 cg2d: Sum(rhs),rhsMax =  -9.46249869571147E-08  9.16053907873528E+00
 cg2d: Sum(rhs),rhsMax =  -9.46787679367844E-08  9.15529303788953E+00
 cg2d: Sum(rhs),rhsMax =  -9.47327123412833E-08  9.15002961005962E+00
 cg2d: Sum(rhs),rhsMax =  -9.47873814993727E-08  9.14475542293395E+00
 cg2d: Sum(rhs),rhsMax =  -9.48415888046839E-08  9.13947626776025E+00
 cg2d: Sum(rhs),rhsMax =  -9.48963148061921E-08  9.13419703804716E+00
 cg2d: Sum(rhs),rhsMax =  -9.49505718494947E-08  9.12892171232682E+00
 cg2d: Sum(rhs),rhsMax =  -9.50055820680973E-08  9.12365335338700E+00
 cg2d: Sum(rhs),rhsMax =  -9.50602441207593E-08  9.11839411243203E+00
 cg2d: Sum(rhs),rhsMax =  -9.51149274897034E-08  9.11314523538299E+00
 cg2d: Sum(rhs),rhsMax =  -9.51689713701853E-08  9.10790707134369E+00
 cg2d: Sum(rhs),rhsMax =  -9.52241663298992E-08  9.10267908920085E+00
 cg2d: Sum(rhs),rhsMax =  -9.52785583763216E-08  9.09745990818067E+00
 cg2d: Sum(rhs),rhsMax =  -9.53332346398383E-08  9.09224734512777E+00
 cg2d: Sum(rhs),rhsMax =  -9.53879322196372E-08  9.08703847736888E+00
 cg2d: Sum(rhs),rhsMax =  -9.54423811094784E-08  9.08182972075513E+00
 cg2d: Sum(rhs),rhsMax =  -9.54974623823546E-08  9.07661692347198E+00
 cg2d: Sum(rhs),rhsMax =  -9.55527141854873E-08  9.07139547821490E+00
 cg2d: Sum(rhs),rhsMax =  -9.56078878289190E-08  9.06616045270155E+00
 cg2d: Sum(rhs),rhsMax =  -9.56632462134621E-08  9.06090673305150E+00
 cg2d: Sum(rhs),rhsMax =  -9.57190593453561E-08  9.05562917574046E+00
 cg2d: Sum(rhs),rhsMax =  -9.57753982788745E-08  9.05032276301453E+00
 cg2d: Sum(rhs),rhsMax =  -9.58323127520089E-08  9.04498274779792E+00
 cg2d: Sum(rhs),rhsMax =  -9.58890566948867E-08  9.03960479010611E+00
 cg2d: Sum(rhs),rhsMax =  -9.59469090844323E-08  9.03418508103277E+00
 cg2d: Sum(rhs),rhsMax =  -9.60046975251316E-08  9.02872044807494E+00
 cg2d: Sum(rhs),rhsMax =  -9.60634949365158E-08  9.02320843719522E+00
 cg2d: Sum(rhs),rhsMax =  -9.61234505325592E-08  9.01764736350553E+00
 cg2d: Sum(rhs),rhsMax =  -9.61829158541150E-08  9.01203632711249E+00
 cg2d: Sum(rhs),rhsMax =  -9.62436175200310E-08  9.00637519234014E+00
 cg2d: Sum(rhs),rhsMax =  -9.63047241953063E-08  9.00066454100738E+00
 cg2d: Sum(rhs),rhsMax =  -9.63663566722062E-08  8.99490560644289E+00
 cg2d: Sum(rhs),rhsMax =  -9.64286215321408E-08  8.98910019830229E+00
 cg2d: Sum(rhs),rhsMax =  -9.64914832479735E-08  8.98325060608421E+00
 cg2d: Sum(rhs),rhsMax =  -9.65549631359863E-08  8.97735949860674E+00
 cg2d: Sum(rhs),rhsMax =  -9.66191180395981E-08  8.97142982445055E+00
 cg2d: Sum(rhs),rhsMax =  -9.66832942594920E-08  8.96546471599943E+00
 cg2d: Sum(rhs),rhsMax =  -9.67482520763951E-08  8.95946740124540E+00
 cg2d: Sum(rhs),rhsMax =  -9.68132098932983E-08  8.95344112713886E+00
 cg2d: Sum(rhs),rhsMax =  -9.68790274669118E-08  8.94738909112794E+00
 cg2d: Sum(rhs),rhsMax =  -9.69447810916790E-08  8.94131438207753E+00
 cg2d: Sum(rhs),rhsMax =  -9.70111884157632E-08  8.93521991327319E+00
 cg2d: Sum(rhs),rhsMax =  -9.70773115227530E-08  8.92910833888471E+00
 cg2d: Sum(rhs),rhsMax =  -9.71445075492738E-08  8.92298199747039E+00
 cg2d: Sum(rhs),rhsMax =  -9.72113554098541E-08  8.91684290726808E+00
 cg2d: Sum(rhs),rhsMax =  -9.72787574937684E-08  8.91069264633776E+00
 cg2d: Sum(rhs),rhsMax =  -9.73459535202892E-08  8.90453228797114E+00
 cg2d: Sum(rhs),rhsMax =  -9.74135971887335E-08  8.89836249714105E+00
 cg2d: Sum(rhs),rhsMax =  -9.74817027099562E-08  8.89218368115518E+00
 cg2d: Sum(rhs),rhsMax =  -9.75496519117769E-08  8.88599608996445E+00
 cg2d: Sum(rhs),rhsMax =  -9.76179350686834E-08  8.87979980032782E+00
 cg2d: Sum(rhs),rhsMax =  -9.76860476953334E-08  8.87359466021019E+00
 cg2d: Sum(rhs),rhsMax =  -9.77549490244201E-08  8.86737992136571E+00
 cg2d: Sum(rhs),rhsMax =  -9.78237792992331E-08  8.86115449881272E+00
 cg2d: Sum(rhs),rhsMax =  -9.78925882577641E-08  8.85491714939279E+00
 cg2d: Sum(rhs),rhsMax =  -9.79620651264668E-08  8.84866650814923E+00
 cg2d: Sum(rhs),rhsMax =  -9.80318830556826E-08  8.84239908862083E+00
 cg2d: Sum(rhs),rhsMax =  -9.81016583523342E-08  8.83611205511795E+00
 EXTERNAL_FIELDS_LOAD, it=   3600510 : Reading new data, i0,i1=    9   10 (prev=    8    9 )
 DIC_FIELDS_LOAD, it=   3600510 : Reading new data, i0,i1=    9   10 (prev=    8    9 )
 cg2d: Sum(rhs),rhsMax =  -9.81721868242857E-08  8.82980306034887E+00
 cg2d: Sum(rhs),rhsMax =  -9.82427721396562E-08  8.82347164349139E+00
 cg2d: Sum(rhs),rhsMax =  -9.83135990395567E-08  8.81711735596894E+00
 cg2d: Sum(rhs),rhsMax =  -9.83851720093298E-08  8.81074020360017E+00
 cg2d: Sum(rhs),rhsMax =  -9.84564962891454E-08  8.80434063629974E+00
 cg2d: Sum(rhs),rhsMax =  -9.85286376931072E-08  8.79791959804717E+00
 cg2d: Sum(rhs),rhsMax =  -9.86011414738641E-08  8.79147850051498E+00
 cg2d: Sum(rhs),rhsMax =  -9.86734960406466E-08  8.78501923806664E+00
 cg2d: Sum(rhs),rhsMax =  -9.87464900958912E-08  8.77854412431977E+00
 cg2d: Sum(rhs),rhsMax =  -9.88197470519481E-08  8.77205585109022E+00
 cg2d: Sum(rhs),rhsMax =  -9.88934729662105E-08  8.76555740298602E+00
 cg2d: Sum(rhs),rhsMax =  -9.89669146633787E-08  8.75905198910442E+00
 cg2d: Sum(rhs),rhsMax =  -9.90407258427695E-08  8.75254295465281E+00
 cg2d: Sum(rhs),rhsMax =  -9.91145014950234E-08  8.74603368964057E+00
 cg2d: Sum(rhs),rhsMax =  -9.91886466295000E-08  8.73952755244439E+00
 cg2d: Sum(rhs),rhsMax =  -9.92623157003436E-08  8.73302782624689E+00
 cg2d: Sum(rhs),rhsMax =  -9.93363400425551E-08  8.72653766294564E+00
 cg2d: Sum(rhs),rhsMax =  -9.94104141227581E-08  8.72006002219781E+00
 cg2d: Sum(rhs),rhsMax =  -9.94844668866790E-08  8.71359759621992E+00
 cg2d: Sum(rhs),rhsMax =  -9.95583775420528E-08  8.70715278372291E+00
 cg2d: Sum(rhs),rhsMax =  -9.96322597757171E-08  8.70072771032166E+00
 cg2d: Sum(rhs),rhsMax =  -9.97059714791249E-08  8.69432422374462E+00
 cg2d: Sum(rhs),rhsMax =  -9.97792923840279E-08  8.68794392220557E+00
 cg2d: Sum(rhs),rhsMax =  -9.98527127649140E-08  8.68159287495532E+00
 cg2d: Sum(rhs),rhsMax =  -9.99256144496030E-08  8.67527594836007E+00
 cg2d: Sum(rhs),rhsMax =  -9.99983740257449E-08  8.66899648662334E+00
 cg2d: Sum(rhs),rhsMax =  -1.00070764119664E-07  8.66275674813775E+00
 cg2d: Sum(rhs),rhsMax =  -1.00142791836788E-07  8.65655808426570E+00
 cg2d: Sum(rhs),rhsMax =  -1.00214123222031E-07  8.65040095427649E+00
 cg2d: Sum(rhs),rhsMax =  -1.00285419080137E-07  8.64428511771589E+00
 cg2d: Sum(rhs),rhsMax =  -1.00356203347474E-07  8.63820779072895E+00
 cg2d: Sum(rhs),rhsMax =  -1.00426881033400E-07  8.63216610266613E+00
 cg2d: Sum(rhs),rhsMax =  -1.00497182131676E-07  8.62615664857018E+00
 cg2d: Sum(rhs),rhsMax =  -1.00566929006618E-07  8.62017549344574E+00
 cg2d: Sum(rhs),rhsMax =  -1.00636839306389E-07  8.61421824973427E+00
 cg2d: Sum(rhs),rhsMax =  -1.00706515127058E-07  8.60828014305759E+00
 cg2d: Sum(rhs),rhsMax =  -1.00776318845419E-07  8.60235619466164E+00
 cg2d: Sum(rhs),rhsMax =  -1.00845916506387E-07  8.59644141396147E+00
 cg2d: Sum(rhs),rhsMax =  -1.00915485745645E-07  8.59053104903554E+00
 cg2d: Sum(rhs),rhsMax =  -1.00985261042297E-07  8.58462072248315E+00
 cg2d: Sum(rhs),rhsMax =  -1.01055491086299E-07  8.57870663714626E+00
 cg2d: Sum(rhs),rhsMax =  -1.01125422702353E-07  8.57278566865890E+00
 cg2d: Sum(rhs),rhsMax =  -1.01195716695202E-07  8.56685532083521E+00
 cg2d: Sum(rhs),rhsMax =  -1.01266216745444E-07  8.56091374139585E+00
 cg2d: Sum(rhs),rhsMax =  -1.01337192859319E-07  8.55495975914983E+00
 cg2d: Sum(rhs),rhsMax =  -1.01408346608878E-07  8.54899275863313E+00
 cg2d: Sum(rhs),rhsMax =  -1.01479535885574E-07  8.54301265247851E+00
 cg2d: Sum(rhs),rhsMax =  -1.01551435705005E-07  8.53701978569626E+00
 cg2d: Sum(rhs),rhsMax =  -1.01622724457684E-07  8.53101490472480E+00
 cg2d: Sum(rhs),rhsMax =  -1.01695292187287E-07  8.52499919193590E+00
 cg2d: Sum(rhs),rhsMax =  -1.01767554383514E-07  8.51897431341724E+00
 cg2d: Sum(rhs),rhsMax =  -1.01840242905382E-07  8.51294235247767E+00
 cg2d: Sum(rhs),rhsMax =  -1.01912846162122E-07  8.50690569200869E+00
 cg2d: Sum(rhs),rhsMax =  -1.01985413891725E-07  8.50087005576702E+00
 cg2d: Sum(rhs),rhsMax =  -1.02058450579534E-07  8.49484015017416E+00
 cg2d: Sum(rhs),rhsMax =  -1.02131188839394E-07  8.48882063673028E+00
 cg2d: Sum(rhs),rhsMax =  -1.02203856044980E-07  8.48281607441673E+00
 cg2d: Sum(rhs),rhsMax =  -1.02276672464541E-07  8.47683086082370E+00
 cg2d: Sum(rhs),rhsMax =  -1.02349595465512E-07  8.47086915096995E+00
 cg2d: Sum(rhs),rhsMax =  -1.02421360281824E-07  8.46493476809303E+00
 EXTERNAL_FIELDS_LOAD, it=   3600570 : Reading new data, i0,i1=   10   11 (prev=    9   10 )
 DIC_FIELDS_LOAD, it=   3600570 : Reading new data, i0,i1=   10   11 (prev=    9   10 )
 cg2d: Sum(rhs),rhsMax =  -1.02493515896640E-07  8.45903109783263E+00
 cg2d: Sum(rhs),rhsMax =  -1.02564975179575E-07  8.45319648993583E+00
 cg2d: Sum(rhs),rhsMax =  -1.02634501786270E-07  8.44745634270964E+00
 cg2d: Sum(rhs),rhsMax =  -1.02703893389844E-07  8.44183524325516E+00
 cg2d: Sum(rhs),rhsMax =  -1.02770819410125E-07  8.43635626330932E+00
 cg2d: Sum(rhs),rhsMax =  -1.02836231974379E-07  8.43104036727980E+00
 cg2d: Sum(rhs),rhsMax =  -1.02899214482477E-07  8.42590597581903E+00
 cg2d: Sum(rhs),rhsMax =  -1.02960150627496E-07  8.42096861540595E+00
 cg2d: Sum(rhs),rhsMax =  -1.03018727770632E-07  8.41624063283881E+00
 cg2d: Sum(rhs),rhsMax =  -1.03074462742825E-07  8.41173099284368E+00
 cg2d: Sum(rhs),rhsMax =  -1.03127582917750E-07  8.40744522364360E+00
 cg2d: Sum(rhs),rhsMax =  -1.03177704602331E-07  8.40338548638234E+00
 cg2d: Sum(rhs),rhsMax =  -1.03225289649345E-07  8.39955071057647E+00
 cg2d: Sum(rhs),rhsMax =  -1.03270444640202E-07  8.39593686353065E+00
 cg2d: Sum(rhs),rhsMax =  -1.03312800092681E-07  8.39253726007720E+00
 cg2d: Sum(rhs),rhsMax =  -1.03352554958747E-07  8.38934286490718E+00
 cg2d: Sum(rhs),rhsMax =  -1.03389886874083E-07  8.38634267692018E+00
 cg2d: Sum(rhs),rhsMax =  -1.03425186637196E-07  8.38352418466840E+00
 cg2d: Sum(rhs),rhsMax =  -1.03458575040349E-07  8.38087384792736E+00
 cg2d: Sum(rhs),rhsMax =  -1.03489654179612E-07  8.37837764295235E+00
 cg2d: Sum(rhs),rhsMax =  -1.03519347760539E-07  8.37602165023152E+00
 cg2d: Sum(rhs),rhsMax =  -1.03547364460610E-07  8.37379265495454E+00
 cg2d: Sum(rhs),rhsMax =  -1.03573896126363E-07  8.37167859305842E+00
 cg2d: Sum(rhs),rhsMax =  -1.03599155920620E-07  8.36966841617237E+00
 cg2d: Sum(rhs),rhsMax =  -1.03623357006200E-07  8.36775262363169E+00
 cg2d: Sum(rhs),rhsMax =  -1.03646584648232E-07  8.36592322530019E+00
 cg2d: Sum(rhs),rhsMax =  -1.03668426731929E-07  8.36417370361670E+00
 cg2d: Sum(rhs),rhsMax =  -1.03689806962848E-07  8.36249893566327E+00
 cg2d: Sum(rhs),rhsMax =  -1.03710164012227E-07  8.36089512198643E+00
 cg2d: Sum(rhs),rhsMax =  -1.03729064448999E-07  8.35935972193128E+00
 cg2d: Sum(rhs),rhsMax =  -1.03747986202052E-07  8.35789132052859E+00
 cg2d: Sum(rhs),rhsMax =  -1.03765373182796E-07  8.35648953984663E+00
 cg2d: Sum(rhs),rhsMax =  -1.03782369365035E-07  8.35515503666620E+00
 cg2d: Sum(rhs),rhsMax =  -1.03798733164240E-07  8.35388959337713E+00
 cg2d: Sum(rhs),rhsMax =  -1.03813491136862E-07  8.35269612989214E+00
 cg2d: Sum(rhs),rhsMax =  -1.03827638042731E-07  8.35157865319166E+00
 cg2d: Sum(rhs),rhsMax =  -1.03841280463257E-07  8.35054220321588E+00
 cg2d: Sum(rhs),rhsMax =  -1.03853331268056E-07  8.34959282244478E+00
 cg2d: Sum(rhs),rhsMax =  -1.03864024936229E-07  8.34873757212784E+00
 cg2d: Sum(rhs),rhsMax =  -1.03873794898846E-07  8.34798443944571E+00
 cg2d: Sum(rhs),rhsMax =  -1.03881951929452E-07  8.34734205444848E+00
 cg2d: Sum(rhs),rhsMax =  -1.03888730507151E-07  8.34681927427749E+00
 cg2d: Sum(rhs),rhsMax =  -1.03893782466002E-07  8.34642479662444E+00
 cg2d: Sum(rhs),rhsMax =  -1.03896695691219E-07  8.34616690162161E+00
 cg2d: Sum(rhs),rhsMax =  -1.03898251779810E-07  8.34605328416144E+00
 cg2d: Sum(rhs),rhsMax =  -1.03897747294468E-07  8.34609086201575E+00
 cg2d: Sum(rhs),rhsMax =  -1.03895416714295E-07  8.34628560159372E+00
 cg2d: Sum(rhs),rhsMax =  -1.03891132141598E-07  8.34664238294981E+00
 cg2d: Sum(rhs),rhsMax =  -1.03884730151549E-07  8.34716488141953E+00
 cg2d: Sum(rhs),rhsMax =  -1.03876232060429E-07  8.34785544920597E+00
 cg2d: Sum(rhs),rhsMax =  -1.03865339440290E-07  8.34871504733891E+00
 cg2d: Sum(rhs),rhsMax =  -1.03852393351644E-07  8.34974320296400E+00
 cg2d: Sum(rhs),rhsMax =  -1.03837578535604E-07  8.35093803633076E+00
 cg2d: Sum(rhs),rhsMax =  -1.03820866570459E-07  8.35229628921908E+00
 cg2d: Sum(rhs),rhsMax =  -1.03801575335183E-07  8.35381348895399E+00
 cg2d: Sum(rhs),rhsMax =  -1.03780770643880E-07  8.35548405560547E+00
 cg2d: Sum(rhs),rhsMax =  -1.03758168279455E-07  8.35730145035772E+00
 cg2d: Sum(rhs),rhsMax =  -1.03734052459004E-07  8.35925834161856E+00
 cg2d: Sum(rhs),rhsMax =  -1.03707641585515E-07  8.36134677020027E+00
 cg2d: Sum(rhs),rhsMax =  -1.03680264373907E-07  8.36355833544679E+00
 EXTERNAL_FIELDS_LOAD, it=   3600630 : Reading new data, i0,i1=   11   12 (prev=   10   11 )
 DIC_FIELDS_LOAD, it=   3600630 : Reading new data, i0,i1=   11   12 (prev=   10   11 )
 cg2d: Sum(rhs),rhsMax =  -1.03651167648877E-07  8.36588437297216E+00
 cg2d: Sum(rhs),rhsMax =  -1.03620983793462E-07  8.36829873825493E+00
 cg2d: Sum(rhs),rhsMax =  -1.03590167555012E-07  8.37078098256463E+00
 cg2d: Sum(rhs),rhsMax =  -1.03558832620365E-07  8.37331076990736E+00
 cg2d: Sum(rhs),rhsMax =  -1.03526986094948E-07  8.37586828475342E+00
 cg2d: Sum(rhs),rhsMax =  -1.03494969039275E-07  8.37843651347270E+00
 cg2d: Sum(rhs),rhsMax =  -1.03462959089029E-07  8.38100058596186E+00
 cg2d: Sum(rhs),rhsMax =  -1.03431759157502E-07  8.38354800119352E+00
 cg2d: Sum(rhs),rhsMax =  -1.03400431328282E-07  8.38606907281455E+00
 cg2d: Sum(rhs),rhsMax =  -1.03369536930131E-07  8.38855705740912E+00
 cg2d: Sum(rhs),rhsMax =  -1.03339182544460E-07  8.39100818777902E+00
 cg2d: Sum(rhs),rhsMax =  -1.03309091059600E-07  8.39342162927294E+00
 cg2d: Sum(rhs),rhsMax =  -1.03279326424399E-07  8.39579937673915E+00
 cg2d: Sum(rhs),rhsMax =  -1.03250158645096E-07  8.39814606298476E+00
 cg2d: Sum(rhs),rhsMax =  -1.03221587721691E-07  8.40046867037939E+00
 cg2d: Sum(rhs),rhsMax =  -1.03192640210636E-07  8.40277617859981E+00
 cg2d: Sum(rhs),rhsMax =  -1.03164317977189E-07  8.40507915533000E+00
 cg2d: Sum(rhs),rhsMax =  -1.03135583628955E-07  8.40738929078001E+00
 cg2d: Sum(rhs),rhsMax =  -1.03106465587643E-07  8.40971893982490E+00
 cg2d: Sum(rhs),rhsMax =  -1.03077603341717E-07  8.41208069021930E+00
 cg2d: Sum(rhs),rhsMax =  -1.03047760546815E-07  8.41448664736628E+00
 cg2d: Sum(rhs),rhsMax =  -1.03017328001442E-07  8.41694808963461E+00
 cg2d: Sum(rhs),rhsMax =  -1.02985850958248E-07  8.41947641344255E+00
 cg2d: Sum(rhs),rhsMax =  -1.02953762848301E-07  8.42209465677943E+00
 cg2d: Sum(rhs),rhsMax =  -1.02920779454507E-07  8.42481840011152E+00
 cg2d: Sum(rhs),rhsMax =  -1.02885756803062E-07  8.42766143831664E+00
 cg2d: Sum(rhs),rhsMax =  -1.02849760708068E-07  8.43063562227923E+00
 cg2d: Sum(rhs),rhsMax =  -1.02811505087175E-07  8.43375048923612E+00
 cg2d: Sum(rhs),rhsMax =  -1.02771743115682E-07  8.43701312183894E+00
 cg2d: Sum(rhs),rhsMax =  -1.02730268736195E-07  8.44042805498092E+00
 cg2d: Sum(rhs),rhsMax =  -1.02686364300553E-07  8.44399728026233E+00
 cg2d: Sum(rhs),rhsMax =  -1.02641237731405E-07  8.44772028674299E+00
 cg2d: Sum(rhs),rhsMax =  -1.02594057693750E-07  8.45159419183708E+00
 cg2d: Sum(rhs),rhsMax =  -1.02545079982974E-07  8.45561389463918E+00
 cg2d: Sum(rhs),rhsMax =  -1.02494418285914E-07  8.45977229544668E+00
 cg2d: Sum(rhs),rhsMax =  -1.02442626825905E-07  8.46406043486096E+00
 cg2d: Sum(rhs),rhsMax =  -1.02389186906748E-07  8.46846786249842E+00
 cg2d: Sum(rhs),rhsMax =  -1.02334411167249E-07  8.47298294092153E+00
 cg2d: Sum(rhs),rhsMax =  -1.02278569613645E-07  8.47759310010859E+00
 cg2d: Sum(rhs),rhsMax =  -1.02221783038203E-07  8.48228511495217E+00
 cg2d: Sum(rhs),rhsMax =  -1.02164435134000E-07  8.48704540520819E+00
 cg2d: Sum(rhs),rhsMax =  -1.02106639587873E-07  8.49186038102640E+00
 cg2d: Sum(rhs),rhsMax =  -1.02048161920720E-07  8.49671683330553E+00
 cg2d: Sum(rhs),rhsMax =  -1.01989222400789E-07  8.50160229731839E+00
 cg2d: Sum(rhs),rhsMax =  -1.01930119456028E-07  8.50650541756349E+00
 cg2d: Sum(rhs),rhsMax =  -1.01871734159431E-07  8.51141606286167E+00
 cg2d: Sum(rhs),rhsMax =  -1.01813114383731E-07  8.51632550458549E+00
 cg2d: Sum(rhs),rhsMax =  -1.01754352499484E-07  8.52122658728227E+00
 cg2d: Sum(rhs),rhsMax =  -1.01695938781177E-07  8.52611387363114E+00
 cg2d: Sum(rhs),rhsMax =  -1.01637908755947E-07  8.53098375482528E+00
 cg2d: Sum(rhs),rhsMax =  -1.01580091893538E-07  8.53583450654913E+00
 cg2d: Sum(rhs),rhsMax =  -1.01522516615660E-07  8.54066629803099E+00
 cg2d: Sum(rhs),rhsMax =  -1.01465325030858E-07  8.54548114840508E+00
 cg2d: Sum(rhs),rhsMax =  -1.01408510033707E-07  8.55028281355603E+00
 cg2d: Sum(rhs),rhsMax =  -1.01351844250530E-07  8.55507663782142E+00
 cg2d: Sum(rhs),rhsMax =  -1.01294901355686E-07  8.55986938569464E+00
 cg2d: Sum(rhs),rhsMax =  -1.01238242677937E-07  8.56466907941720E+00
 cg2d: Sum(rhs),rhsMax =  -1.01181711897880E-07  8.56948481849350E+00
 cg2d: Sum(rhs),rhsMax =  -1.01124427942523E-07  8.57432655386490E+00
 cg2d: Sum(rhs),rhsMax =  -1.01066994773191E-07  8.57920482306538E+00
 EXTERNAL_FIELDS_LOAD, it=   3600690 : Reading new data, i0,i1=   12    1 (prev=   11   12 )
 DIC_FIELDS_LOAD, it=   3600690 : Reading new data, i0,i1=   12    1 (prev=   11   12 )
 cg2d: Sum(rhs),rhsMax =  -1.01009099751082E-07  8.58413045456863E+00
 cg2d: Sum(rhs),rhsMax =  -1.00950970249869E-07  8.58908772075261E+00
 cg2d: Sum(rhs),rhsMax =  -1.00892201260194E-07  8.59407113784658E+00
 cg2d: Sum(rhs),rhsMax =  -1.00833979388426E-07  8.59907533504329E+00
 cg2d: Sum(rhs),rhsMax =  -1.00775366718153E-07  8.60409527812640E+00
 cg2d: Sum(rhs),rhsMax =  -1.00716533779632E-07  8.60912639608676E+00
 cg2d: Sum(rhs),rhsMax =  -1.00657807422522E-07  8.61416467727663E+00
 cg2d: Sum(rhs),rhsMax =  -1.00599194752249E-07  8.61920670304104E+00
 cg2d: Sum(rhs),rhsMax =  -1.00540219705181E-07  8.62424959025954E+00
 cg2d: Sum(rhs),rhsMax =  -1.00481713616318E-07  8.62929084710763E+00
 cg2d: Sum(rhs),rhsMax =  -1.00423278581729E-07  8.63432823431656E+00
 cg2d: Sum(rhs),rhsMax =  -1.00365085131671E-07  8.63935967110789E+00
 cg2d: Sum(rhs),rhsMax =  -1.00306984052168E-07  8.64438326330631E+00
 cg2d: Sum(rhs),rhsMax =  -1.00248698231553E-07  8.64939736363611E+00
 cg2d: Sum(rhs),rhsMax =  -1.00191144269957E-07  8.65440069908248E+00
 cg2d: Sum(rhs),rhsMax =  -1.00133568992078E-07  8.65939260929048E+00
 cg2d: Sum(rhs),rhsMax =  -1.00076100295610E-07  8.66437312037654E+00
 cg2d: Sum(rhs),rhsMax =  -1.00019036608501E-07  8.66934290835576E+00
 cg2d: Sum(rhs),rhsMax =  -9.99617597585711E-08  8.67430225124478E+00
 cg2d: Sum(rhs),rhsMax =  -9.99047102823170E-08  8.67925494682890E+00
 cg2d: Sum(rhs),rhsMax =  -9.98482363456787E-08  8.68420608713978E+00
 cg2d: Sum(rhs),rhsMax =  -9.97913716105359E-08  8.68916081980566E+00
 cg2d: Sum(rhs),rhsMax =  -9.97343434505638E-08  8.69412416784580E+00
 cg2d: Sum(rhs),rhsMax =  -9.96773295014464E-08  8.69910085245627E+00
 cg2d: Sum(rhs),rhsMax =  -9.96202871306195E-08  8.70409517445086E+00
 cg2d: Sum(rhs),rhsMax =  -9.95629250155616E-08  8.70911095741398E+00
 cg2d: Sum(rhs),rhsMax =  -9.95059110664442E-08  8.71415148969223E+00
 cg2d: Sum(rhs),rhsMax =  -9.94480160443345E-08  8.71921930590513E+00
 cg2d: Sum(rhs),rhsMax =  -9.93902702361993E-08  8.72431607432102E+00
 cg2d: Sum(rhs),rhsMax =  -9.93317215147727E-08  8.72944261226047E+00
 cg2d: Sum(rhs),rhsMax =  -9.92735280647139E-08  8.73459893266904E+00
 cg2d: Sum(rhs),rhsMax =  -9.92147448641845E-08  8.73978430818157E+00
 cg2d: Sum(rhs),rhsMax =  -9.91560966667748E-08  8.74499735837366E+00
 cg2d: Sum(rhs),rhsMax =  -9.90966526615011E-08  8.75023614706347E+00
 cg2d: Sum(rhs),rhsMax =  -9.90366970654577E-08  8.75549829188909E+00
 cg2d: Sum(rhs),rhsMax =  -9.89772743764661E-08  8.76078107848702E+00
 cg2d: Sum(rhs),rhsMax =  -9.89177024735000E-08  8.76608155580086E+00
 cg2d: Sum(rhs),rhsMax =  -9.88579742511320E-08  8.77139664107964E+00
 cg2d: Sum(rhs),rhsMax =  -9.87977060162848E-08  8.77672320795606E+00
 cg2d: Sum(rhs),rhsMax =  -9.87382264838743E-08  8.78205816635757E+00
(PID.TID 0000.0001) Did not write pickup because writePickupAtEnd = FALSE
 DIC_SURFFORCING_INIT, it=   3600000 : Reading new data, i0,i1=   12    1
 QQ: pCO2 approximation method
 QQ first guess pH 8.2869849781645275,  7.129213793781922,  34.1535348423009,  2.0282,  5.43799999999999991E-4,  8.08490416966378689E-3,  2.3086000000000002
(PID.TID 0000.0001) // =======================================================
(PID.TID 0000.0001) // Model current state
(PID.TID 0000.0001) // =======================================================
(PID.TID 0000.0001) 
 EXTERNAL_FIELDS_LOAD, it=   3600000 : Reading new data, i0,i1=   12    1 (prev=   12    0 )
 DIC_FIELDS_LOAD, it=   3600000 : Reading new data, i0,i1=   12    1 (prev=   12    0 )
 cg2d: Sum(rhs),rhsMax =  -9.92433868418630E-08  8.73439671821315E+00
 cg2d: Sum(rhs),rhsMax =  -9.91844260056496E-08  8.73957958587058E+00
 cg2d: Sum(rhs),rhsMax =  -9.91252449011881E-08  8.74478969091806E+00
 cg2d: Sum(rhs),rhsMax =  -9.90665185440776E-08  8.75002495477880E+00
 cg2d: Sum(rhs),rhsMax =  -9.90068542705558E-08  8.75528284057604E+00
 cg2d: Sum(rhs),rhsMax =  -9.89473534218632E-08  8.76056047500076E+00
 cg2d: Sum(rhs),rhsMax =  -9.88878241514612E-08  8.76585475900637E+00
 cg2d: Sum(rhs),rhsMax =  -9.88279893476829E-08  8.77116249138180E+00
 cg2d: Sum(rhs),rhsMax =  -9.87682469144602E-08  8.77648047471154E+00
 cg2d: Sum(rhs),rhsMax =  -9.87087602766223E-08  8.78180560756084E+00
 cg2d: Sum(rhs),rhsMax =  -9.86489112619893E-08  8.78713494778165E+00
 cg2d: Sum(rhs),rhsMax =  -9.85891404070571E-08  8.79246575399440E+00
 cg2d: Sum(rhs),rhsMax =  -9.85293340249882E-08  8.79779549299699E+00
 cg2d: Sum(rhs),rhsMax =  -9.84700747608258E-08  8.80312181092759E+00
 cg2d: Sum(rhs),rhsMax =  -9.84108581292276E-08  8.80844249631459E+00
 cg2d: Sum(rhs),rhsMax =  -9.83516486030567E-08  8.81375547068360E+00
 cg2d: Sum(rhs),rhsMax =  -9.82926522397065E-08  8.81905885446822E+00
 cg2d: Sum(rhs),rhsMax =  -9.82337553523394E-08  8.82435106608147E+00
 cg2d: Sum(rhs),rhsMax =  -9.81751568929212E-08  8.82963093738125E+00
 cg2d: Sum(rhs),rhsMax =  -9.81166650149135E-08  8.83489782452132E+00
 cg2d: Sum(rhs),rhsMax =  -9.80585213028462E-08  8.84015168145881E+00
 cg2d: Sum(rhs),rhsMax =  -9.80007470730015E-08  8.84539306572338E+00
 cg2d: Sum(rhs),rhsMax =  -9.79429586323022E-08  8.85062306296846E+00
 cg2d: Sum(rhs),rhsMax =  -9.78853904598509E-08  8.85584316140559E+00
 cg2d: Sum(rhs),rhsMax =  -9.78280425556477E-08  8.86105508303604E+00
 cg2d: Sum(rhs),rhsMax =  -9.77709291305473E-08  8.86626061391844E+00
 cg2d: Sum(rhs),rhsMax =  -9.77132472712583E-08  8.87146147123075E+00
 cg2d: Sum(rhs),rhsMax =  -9.76563327981239E-08  8.87665923110881E+00
 cg2d: Sum(rhs),rhsMax =  -9.75990843699037E-08  8.88185530584736E+00
 cg2d: Sum(rhs),rhsMax =  -9.75420704207863E-08  8.88705095973601E+00
 EXTERNAL_FIELDS_LOAD, it=   3600030 : Reading new data, i0,i1=    1    2 (prev=   12    1 )
 DIC_FIELDS_LOAD, it=   3600030 : Reading new data, i0,i1=    1    2 (prev=   12    1 )
 cg2d: Sum(rhs),rhsMax =  -9.74853406887632E-08  8.89224735691429E+00
 cg2d: Sum(rhs),rhsMax =  -9.74287814869967E-08  8.89742706375180E+00
 cg2d: Sum(rhs),rhsMax =  -9.73723857100595E-08  8.90258000132907E+00
 cg2d: Sum(rhs),rhsMax =  -9.73164659967551E-08  8.90769672951691E+00
 cg2d: Sum(rhs),rhsMax =  -9.72612284044772E-08  8.91276878246959E+00
 cg2d: Sum(rhs),rhsMax =  -9.72070637317302E-08  8.91778889429735E+00
 cg2d: Sum(rhs),rhsMax =  -9.71530482729577E-08  8.92275113682099E+00
 cg2d: Sum(rhs),rhsMax =  -9.70993241367069E-08  8.92765100404361E+00
 cg2d: Sum(rhs),rhsMax =  -9.70471916161841E-08  8.93248545016401E+00
 cg2d: Sum(rhs),rhsMax =  -9.69955280538670E-08  8.93725287491615E+00
 cg2d: Sum(rhs),rhsMax =  -9.69441273923621E-08  8.94195305183593E+00
 cg2d: Sum(rhs),rhsMax =  -9.68941833434656E-08  8.94658701582531E+00
 cg2d: Sum(rhs),rhsMax =  -9.68450208915783E-08  8.95115692214719E+00
 cg2d: Sum(rhs),rhsMax =  -9.67962705544778E-08  8.95566589123099E+00
 cg2d: Sum(rhs),rhsMax =  -9.67482165492584E-08  8.96011786358850E+00
 cg2d: Sum(rhs),rhsMax =  -9.67008020325011E-08  8.96451747891563E+00
 cg2d: Sum(rhs),rhsMax =  -9.66539346336504E-08  8.96886998187158E+00
 cg2d: Sum(rhs),rhsMax =  -9.66078843589457E-08  8.97318115409823E+00
 cg2d: Sum(rhs),rhsMax =  -9.65621254067628E-08  8.97745726495199E+00
 cg2d: Sum(rhs),rhsMax =  -9.65159685506478E-08  8.98170502198163E+00
 cg2d: Sum(rhs),rhsMax =  -9.64709272466280E-08  8.98593151889555E+00
 cg2d: Sum(rhs),rhsMax =  -9.64258006774799E-08  8.99014423145949E+00
 cg2d: Sum(rhs),rhsMax =  -9.63806954246138E-08  8.99435085408351E+00
 cg2d: Sum(rhs),rhsMax =  -9.63354978011921E-08  8.99855914272681E+00
 cg2d: Sum(rhs),rhsMax =  -9.62904493917449E-08  9.00277662786875E+00
 cg2d: Sum(rhs),rhsMax =  -9.62449746566563E-08  9.00700998220796E+00
 cg2d: Sum(rhs),rhsMax =  -9.61997557169525E-08  9.01126574761483E+00
 cg2d: Sum(rhs),rhsMax =  -9.61540180810516E-08  9.01555039729210E+00
 cg2d: Sum(rhs),rhsMax =  -9.61077120109621E-08  9.01986971435378E+00
 cg2d: Sum(rhs),rhsMax =  -9.60613775191632E-08  9.02422880815445E+00
 cg2d: Sum(rhs),rhsMax =  -9.60143182737738E-08  9.02863205182447E+00
 cg2d: Sum(rhs),rhsMax =  -9.59668398081703E-08  9.03308295193821E+00
 cg2d: Sum(rhs),rhsMax =  -9.59189492277801E-08  9.03758400719746E+00
 cg2d: Sum(rhs),rhsMax =  -9.58706323217484E-08  9.04213663854453E+00
 cg2d: Sum(rhs),rhsMax =  -9.58215622404168E-08  9.04674109185253E+00
 cg2d: Sum(rhs),rhsMax =  -9.57721724148541E-08  9.05139640217902E+00
 cg2d: Sum(rhs),rhsMax =  -9.57223775799321E-08  9.05610040614876E+00
 cg2d: Sum(rhs),rhsMax =  -9.56718224642827E-08  9.06084979109159E+00
 cg2d: Sum(rhs),rhsMax =  -9.56211039238042E-08  9.06564017672268E+00
 cg2d: Sum(rhs),rhsMax =  -9.55700798499493E-08  9.07046622792088E+00
 cg2d: Sum(rhs),rhsMax =  -9.55189918272481E-08  9.07532179655311E+00
 cg2d: Sum(rhs),rhsMax =  -9.54672145780933E-08  9.08020008054443E+00
 cg2d: Sum(rhs),rhsMax =  -9.54156860188959E-08  9.08509379067778E+00
 cg2d: Sum(rhs),rhsMax =  -9.53640864054250E-08  9.08999532389517E+00
 cg2d: Sum(rhs),rhsMax =  -9.53120391500306E-08  9.09489685062687E+00
 cg2d: Sum(rhs),rhsMax =  -9.52604963799786E-08  9.09979078670731E+00
 cg2d: Sum(rhs),rhsMax =  -9.52091738781746E-08  9.10466952325132E+00
 cg2d: Sum(rhs),rhsMax =  -9.51581995423112E-08  9.10952586151125E+00
 cg2d: Sum(rhs),rhsMax =  -9.51075378452515E-08  9.11435305322486E+00
 cg2d: Sum(rhs),rhsMax =  -9.50568974644739E-08  9.11914489544444E+00
 cg2d: Sum(rhs),rhsMax =  -9.50070173644235E-08  9.12389583482653E+00
 cg2d: Sum(rhs),rhsMax =  -9.49582670273230E-08  9.12860106773695E+00
 cg2d: Sum(rhs),rhsMax =  -9.49094669522310E-08  9.13325671324743E+00
 cg2d: Sum(rhs),rhsMax =  -9.48612637330370E-08  9.13785989332165E+00
 cg2d: Sum(rhs),rhsMax =  -9.48139060596986E-08  9.14240888612431E+00
 cg2d: Sum(rhs),rhsMax =  -9.47671381368309E-08  9.14690322805975E+00
 cg2d: Sum(rhs),rhsMax =  -9.47210025969980E-08  9.15134376400067E+00
 cg2d: Sum(rhs),rhsMax =  -9.46753857533622E-08  9.15573262291172E+00
 cg2d: Sum(rhs),rhsMax =  -9.46305078741716E-08  9.16007311317651E+00
 cg2d: Sum(rhs),rhsMax =  -9.45855020972886E-08  9.16436954661381E+00
 EXTERNAL_FIELDS_LOAD, it=   3600090 : Reading new data, i0,i1=    2    3 (prev=    1    2 )
 DIC_FIELDS_LOAD, it=   3600090 : Reading new data, i0,i1=    2    3 (prev=    1    2 )
 cg2d: Sum(rhs),rhsMax =  -9.45416047670733E-08  9.16862700792054E+00
 cg2d: Sum(rhs),rhsMax =  -9.44977784911316E-08  9.17286965792043E+00
 cg2d: Sum(rhs),rhsMax =  -9.44538882663437E-08  9.17711460232796E+00
 cg2d: Sum(rhs),rhsMax =  -9.44097777733077E-08  9.18137827264839E+00
 cg2d: Sum(rhs),rhsMax =  -9.43655606988614E-08  9.18567586102450E+00
 cg2d: Sum(rhs),rhsMax =  -9.43208533499273E-08  9.19002086507332E+00
 cg2d: Sum(rhs),rhsMax =  -9.42755065125311E-08  9.19442473147613E+00
 cg2d: Sum(rhs),rhsMax =  -9.42294988703907E-08  9.19889660310093E+00
 cg2d: Sum(rhs),rhsMax =  -9.41831217460276E-08  9.20344317156002E+00
 cg2d: Sum(rhs),rhsMax =  -9.41357711781166E-08  9.20806863385625E+00
 cg2d: Sum(rhs),rhsMax =  -9.40875679589226E-08  9.21277472508850E+00
 cg2d: Sum(rhs),rhsMax =  -9.40387323566938E-08  9.21756082935263E+00
 cg2d: Sum(rhs),rhsMax =  -9.39891506845925E-08  9.22242415169496E+00
 cg2d: Sum(rhs),rhsMax =  -9.39387589937724E-08  9.22735992735964E+00
 cg2d: Sum(rhs),rhsMax =  -9.38874578082505E-08  9.23236166048178E+00
 cg2d: Sum(rhs),rhsMax =  -9.38360713576003E-08  9.23742136926884E+00
 cg2d: Sum(rhs),rhsMax =  -9.37847204340869E-08  9.24252982829311E+00
 cg2d: Sum(rhs),rhsMax =  -9.37326518624104E-08  9.24767682825910E+00
 cg2d: Sum(rhs),rhsMax =  -9.36799651185538E-08  9.25285135651627E+00
 cg2d: Sum(rhs),rhsMax =  -9.36278468088858E-08  9.25804181556396E+00
 cg2d: Sum(rhs),rhsMax =  -9.35753803332773E-08  9.26323624437734E+00
 cg2d: Sum(rhs),rhsMax =  -9.35233543941649E-08  9.26842252954541E+00
 cg2d: Sum(rhs),rhsMax =  -9.34712076627875E-08  9.27358855590945E+00
 cg2d: Sum(rhs),rhsMax =  -9.34198851609835E-08  9.27872221865362E+00
 cg2d: Sum(rhs),rhsMax =  -9.33687331894362E-08  9.28381269175841E+00
 cg2d: Sum(rhs),rhsMax =  -9.33183130769066E-08  9.28884990364347E+00
 cg2d: Sum(rhs),rhsMax =  -9.32684542931383E-08  9.29382460831193E+00
 cg2d: Sum(rhs),rhsMax =  -9.32194410552256E-08  9.29872876125425E+00
 cg2d: Sum(rhs),rhsMax =  -9.31711383600486E-08  9.30355578941157E+00
 cg2d: Sum(rhs),rhsMax =  -9.31240364820951E-08  9.30830071441787E+00
 cg2d: Sum(rhs),rhsMax =  -9.30773893514925E-08  9.31296016039586E+00
 cg2d: Sum(rhs),rhsMax =  -9.30318719838397E-08  9.31753230345820E+00
 cg2d: Sum(rhs),rhsMax =  -9.29872783217434E-08  9.32201677457960E+00
 cg2d: Sum(rhs),rhsMax =  -9.29437931063148E-08  9.32641453687162E+00
 cg2d: Sum(rhs),rhsMax =  -9.29007910599466E-08  9.33072777407330E+00
 cg2d: Sum(rhs),rhsMax =  -9.28590253579387E-08  9.33495977832897E+00
 cg2d: Sum(rhs),rhsMax =  -9.28177001924269E-08  9.33911483571782E+00
 cg2d: Sum(rhs),rhsMax =  -9.27770358316593E-08  9.34319809772528E+00
 cg2d: Sum(rhs),rhsMax =  -9.27373591252945E-08  9.34721542637213E+00
 cg2d: Sum(rhs),rhsMax =  -9.26982295368362E-08  9.35117321728378E+00
 cg2d: Sum(rhs),rhsMax =  -9.26594978523099E-08  9.35507820898651E+00
 cg2d: Sum(rhs),rhsMax =  -9.26212777585533E-08  9.35893728101038E+00
 cg2d: Sum(rhs),rhsMax =  -9.25836900478316E-08  9.36275724876052E+00
 cg2d: Sum(rhs),rhsMax =  -9.25467347201447E-08  9.36654466497940E+00
 cg2d: Sum(rhs),rhsMax =  -9.25093388559617E-08  9.37030563739009E+00
 cg2d: Sum(rhs),rhsMax =  -9.24723693174201E-08  9.37404566529748E+00
 cg2d: Sum(rhs),rhsMax =  -9.24358261045199E-08  9.37776950669782E+00
 cg2d: Sum(rhs),rhsMax =  -9.23998015878169E-08  9.38148107939576E+00
 cg2d: Sum(rhs),rhsMax =  -9.23633649563271E-08  9.38518340080342E+00
 cg2d: Sum(rhs),rhsMax =  -9.23271628039402E-08  9.38887856431341E+00
 cg2d: Sum(rhs),rhsMax =  -9.22907545941598E-08  9.39256775253961E+00
 cg2d: Sum(rhs),rhsMax =  -9.22549361348501E-08  9.39625127829926E+00
 cg2d: Sum(rhs),rhsMax =  -9.22186487173349E-08  9.39992865313115E+00
 cg2d: Sum(rhs),rhsMax =  -9.21831713185384E-08  9.40359867110262E+00
 cg2d: Sum(rhs),rhsMax =  -9.21473457538013E-08  9.40725949891390E+00
 cg2d: Sum(rhs),rhsMax =  -9.21119038821416E-08  9.41090875978471E+00
 cg2d: Sum(rhs),rhsMax =  -9.20763412182168E-08  9.41454361858659E+00
 cg2d: Sum(rhs),rhsMax =  -9.20410343496769E-08  9.41816086827301E+00
 cg2d: Sum(rhs),rhsMax =  -9.20060685416502E-08  9.42175701532902E+00
 cg2d: Sum(rhs),rhsMax =  -9.19711879987517E-08  9.42532836100955E+00
 EXTERNAL_FIELDS_LOAD, it=   3600150 : Reading new data, i0,i1=    3    4 (prev=    2    3 )
 DIC_FIELDS_LOAD, it=   3600150 : Reading new data, i0,i1=    3    4 (prev=    2    3 )
 cg2d: Sum(rhs),rhsMax =  -9.19367622032041E-08  9.42887108055882E+00
 cg2d: Sum(rhs),rhsMax =  -9.19030327395376E-08  9.43235832256638E+00
 cg2d: Sum(rhs),rhsMax =  -9.18696727580937E-08  9.43577294710938E+00
 cg2d: Sum(rhs),rhsMax =  -9.18375349101552E-08  9.43909901719340E+00
 cg2d: Sum(rhs),rhsMax =  -9.18056457521743E-08  9.44232226351574E+00
 cg2d: Sum(rhs),rhsMax =  -9.17754618967592E-08  9.44543045713848E+00
 cg2d: Sum(rhs),rhsMax =  -9.17468696570722E-08  9.44841368652191E+00
 cg2d: Sum(rhs),rhsMax =  -9.17188671678559E-08  9.45126453300903E+00
 cg2d: Sum(rhs),rhsMax =  -9.16929749905648E-08  9.45397814472091E+00
 cg2d: Sum(rhs),rhsMax =  -9.16680278351123E-08  9.45655223330268E+00
 cg2d: Sum(rhs),rhsMax =  -9.16445941356869E-08  9.45898700078271E+00
 cg2d: Sum(rhs),rhsMax =  -9.16223754643397E-08  9.46128500172268E+00
 cg2d: Sum(rhs),rhsMax =  -9.16011231311131E-08  9.46345095767279E+00
 cg2d: Sum(rhs),rhsMax =  -9.15811568802383E-08  9.46549153513779E+00
 cg2d: Sum(rhs),rhsMax =  -9.15625619768434E-08  9.46741508859273E+00
 cg2d: Sum(rhs),rhsMax =  -9.15451252581079E-08  9.46923137659912E+00
 cg2d: Sum(rhs),rhsMax =  -9.15285980340741E-08  9.47095124324780E+00
 cg2d: Sum(rhs),rhsMax =  -9.15126108225195E-08  9.47258633929544E+00
 cg2d: Sum(rhs),rhsMax =  -9.14974762622478E-08  9.47414881667898E+00
 cg2d: Sum(rhs),rhsMax =  -9.14831588261222E-08  9.47565102854520E+00
 cg2d: Sum(rhs),rhsMax =  -9.14691185016636E-08  9.47710524161440E+00
 cg2d: Sum(rhs),rhsMax =  -9.14552913400257E-08  9.47852337330871E+00
 cg2d: Sum(rhs),rhsMax =  -9.14417910280463E-08  9.47991675839448E+00
 cg2d: Sum(rhs),rhsMax =  -9.14288023068366E-08  9.48129594936036E+00
 cg2d: Sum(rhs),rhsMax =  -9.14153162057119E-08  9.48267055268677E+00
 cg2d: Sum(rhs),rhsMax =  -9.14016951014673E-08  9.48404910672501E+00
 cg2d: Sum(rhs),rhsMax =  -9.13883866360266E-08  9.48543898881096E+00
 cg2d: Sum(rhs),rhsMax =  -9.13749147457565E-08  9.48684634838855E+00
 cg2d: Sum(rhs),rhsMax =  -9.13611231112554E-08  9.48827608016959E+00
 cg2d: Sum(rhs),rhsMax =  -9.13465854068818E-08  9.48973182637241E+00
 cg2d: Sum(rhs),rhsMax =  -9.13324456064402E-08  9.49121598932757E+00
 cg2d: Sum(rhs),rhsMax =  -9.13176805283911E-08  9.49272976482376E+00
 cg2d: Sum(rhs),rhsMax =  -9.13029793991882E-08  9.49427318407705E+00
 cg2d: Sum(rhs),rhsMax =  -9.12876600978052E-08  9.49584517202971E+00
 cg2d: Sum(rhs),rhsMax =  -9.12722768475760E-08  9.49744362566448E+00
 cg2d: Sum(rhs),rhsMax =  -9.12563962174318E-08  9.49906550905340E+00
 cg2d: Sum(rhs),rhsMax =  -9.12406292741252E-08  9.50070696299551E+00
 cg2d: Sum(rhs),rhsMax =  -9.12245567974423E-08  9.50236342680402E+00
 cg2d: Sum(rhs),rhsMax =  -9.12086122184519E-08  9.50402976802920E+00
 cg2d: Sum(rhs),rhsMax =  -9.11920636781360E-08  9.50570042893596E+00
 cg2d: Sum(rhs),rhsMax =  -9.11760835720088E-08  9.50736956748404E+00
 cg2d: Sum(rhs),rhsMax =  -9.11599897790438E-08  9.50903122489705E+00
 cg2d: Sum(rhs),rhsMax =  -9.11439812512072E-08  9.51067944299842E+00
 cg2d: Sum(rhs),rhsMax =  -9.11286619498242E-08  9.51230836255520E+00
 cg2d: Sum(rhs),rhsMax =  -9.11128452685261E-08  9.51391232343393E+00
 cg2d: Sum(rhs),rhsMax =  -9.10978172896648E-08  9.51548598638282E+00
 cg2d: Sum(rhs),rhsMax =  -9.10825903588375E-08  9.51702443978652E+00
 cg2d: Sum(rhs),rhsMax =  -9.10679744947629E-08  9.51852327194360E+00
 cg2d: Sum(rhs),rhsMax =  -9.10538062726118E-08  9.51997861079381E+00
 cg2d: Sum(rhs),rhsMax =  -9.10403272769145E-08  9.52138713289450E+00
 cg2d: Sum(rhs),rhsMax =  -9.10271680254482E-08  9.52274605554116E+00
 cg2d: Sum(rhs),rhsMax =  -9.10143498344951E-08  9.52405313717331E+00
 cg2d: Sum(rhs),rhsMax =  -9.10022919242692E-08  9.52530666028232E+00
 cg2d: Sum(rhs),rhsMax =  -9.09905324419924E-08  9.52650541109617E+00
 cg2d: Sum(rhs),rhsMax =  -9.09794692915966E-08  9.52764864727963E+00
 cg2d: Sum(rhs),rhsMax =  -9.09689816808168E-08  9.52873605079492E+00
 cg2d: Sum(rhs),rhsMax =  -9.09588422359775E-08  9.52976767849440E+00
 cg2d: Sum(rhs),rhsMax =  -9.09493280687457E-08  9.53074391639987E+00
 cg2d: Sum(rhs),rhsMax =  -9.09404391791213E-08  9.53166530103624E+00
 cg2d: Sum(rhs),rhsMax =  -9.09316284491979E-08  9.53253252588939E+00
 EXTERNAL_FIELDS_LOAD, it=   3600210 : Reading new data, i0,i1=    4    5 (prev=    3    4 )
 DIC_FIELDS_LOAD, it=   3600210 : Reading new data, i0,i1=    4    5 (prev=    3    4 )
 cg2d: Sum(rhs),rhsMax =  -9.09236845814121E-08  9.53334634295211E+00
 cg2d: Sum(rhs),rhsMax =  -9.09162238826866E-08  9.53412016630968E+00
 cg2d: Sum(rhs),rhsMax =  -9.09088555545168E-08  9.53486144691540E+00
 cg2d: Sum(rhs),rhsMax =  -9.09020556605356E-08  9.53557668814411E+00
 cg2d: Sum(rhs),rhsMax =  -9.08950781308704E-08  9.53626990934916E+00
 cg2d: Sum(rhs),rhsMax =  -9.08885269268467E-08  9.53694479201801E+00
 cg2d: Sum(rhs),rhsMax =  -9.08819686173956E-08  9.53760402798875E+00
 cg2d: Sum(rhs),rhsMax =  -9.08758792661502E-08  9.53824943192211E+00
 cg2d: Sum(rhs),rhsMax =  -9.08692001644340E-08  9.53888215688552E+00
 cg2d: Sum(rhs),rhsMax =  -9.08633310814366E-08  9.53950304357000E+00
 cg2d: Sum(rhs),rhsMax =  -9.08575117364308E-08  9.54011304176576E+00
 cg2d: Sum(rhs),rhsMax =  -9.08516142317239E-08  9.54071301635899E+00
 cg2d: Sum(rhs),rhsMax =  -9.08458943627011E-08  9.54130322912294E+00
 cg2d: Sum(rhs),rhsMax =  -9.08400252797037E-08  9.54188272003942E+00
 cg2d: Sum(rhs),rhsMax =  -9.08349306882883E-08  9.54244934290944E+00
 cg2d: Sum(rhs),rhsMax =  -9.08295305634965E-08  9.54299999628384E+00
 cg2d: Sum(rhs),rhsMax =  -9.08241872821236E-08  9.54353092308816E+00
 cg2d: Sum(rhs),rhsMax =  -9.08189861092978E-08  9.54403796863502E+00
 cg2d: Sum(rhs),rhsMax =  -9.08142894218145E-08  9.54451678452915E+00
 cg2d: Sum(rhs),rhsMax =  -9.08097916862971E-08  9.54496303374895E+00
 cg2d: Sum(rhs),rhsMax =  -9.08056705384297E-08  9.54537256688658E+00
 cg2d: Sum(rhs),rhsMax =  -9.08016417611179E-08  9.54574155534994E+00
 cg2d: Sum(rhs),rhsMax =  -9.07979256226099E-08  9.54606657177462E+00
 cg2d: Sum(rhs),rhsMax =  -9.07952681927782E-08  9.54634467959792E+00
 cg2d: Sum(rhs),rhsMax =  -9.07924189164078E-08  9.54657345840157E+00
 cg2d: Sum(rhs),rhsMax =  -9.07902162339269E-08  9.54675102924543E+00
 cg2d: Sum(rhs),rhsMax =  -9.07886743561903E-08  9.54687605379506E+00
 cg2d: Sum(rhs),rhsMax =  -9.07877648614885E-08  9.54694771403842E+00
 cg2d: Sum(rhs),rhsMax =  -9.07869193156330E-08  9.54696566951997E+00
 cg2d: Sum(rhs),rhsMax =  -9.07865995714019E-08  9.54692999068711E+00
 cg2d: Sum(rhs),rhsMax =  -9.07872106381546E-08  9.54684108541375E+00
 cg2d: Sum(rhs),rhsMax =  -9.07884682987969E-08  9.54669963264824E+00
 cg2d: Sum(rhs),rhsMax =  -9.07898467517043E-08  9.54650651972953E+00
 cg2d: Sum(rhs),rhsMax =  -9.07915449488428E-08  9.54626274758502E+00
 cg2d: Sum(rhs),rhsMax =  -9.07941455352557E-08  9.54596935750525E+00
 cg2d: Sum(rhs),rhsMax =  -9.07970800767544E-08  9.54562738075971E+00
 cg2d: Sum(rhs),rhsMax =  -9.08000501453898E-08  9.54523778248193E+00
 cg2d: Sum(rhs),rhsMax =  -9.08038089164620E-08  9.54480140259877E+00
 cg2d: Sum(rhs),rhsMax =  -9.08078732209106E-08  9.54431888382345E+00
 cg2d: Sum(rhs),rhsMax =  -9.08128896526250E-08  9.54379063440704E+00
 cg2d: Sum(rhs),rhsMax =  -9.08179274006216E-08  9.54321682610369E+00
 cg2d: Sum(rhs),rhsMax =  -9.08231072571652E-08  9.54259741627488E+00
 cg2d: Sum(rhs),rhsMax =  -9.08294239820862E-08  9.54193218180504E+00
 cg2d: Sum(rhs),rhsMax =  -9.08357407070071E-08  9.54122075566689E+00
 cg2d: Sum(rhs),rhsMax =  -9.08426116552619E-08  9.54046266149910E+00
 cg2d: Sum(rhs),rhsMax =  -9.08497668206110E-08  9.53965734943055E+00
 cg2d: Sum(rhs),rhsMax =  -9.08576467395505E-08  9.53880424419014E+00
 cg2d: Sum(rhs),rhsMax =  -9.08659032461401E-08  9.53790282192021E+00
 cg2d: Sum(rhs),rhsMax =  -9.08746713434994E-08  9.53695268180845E+00
 cg2d: Sum(rhs),rhsMax =  -9.08840078750472E-08  9.53595362230667E+00
 cg2d: Sum(rhs),rhsMax =  -9.08936215182621E-08  9.53490571447803E+00
 cg2d: Sum(rhs),rhsMax =  -9.09042654484438E-08  9.53380930168364E+00
 cg2d: Sum(rhs),rhsMax =  -9.09145470018302E-08  9.53266493640869E+00
 cg2d: Sum(rhs),rhsMax =  -9.09259227910297E-08  9.53147332889492E+00
 cg2d: Sum(rhs),rhsMax =  -9.09384141323244E-08  9.53023537646442E+00
 cg2d: Sum(rhs),rhsMax =  -9.09505217805417E-08  9.52895220993865E+00
 cg2d: Sum(rhs),rhsMax =  -9.09629278567081E-08  9.52762520262973E+00
 cg2d: Sum(rhs),rhsMax =  -9.09757815747980E-08  9.52625594300855E+00
 cg2d: Sum(rhs),rhsMax =  -9.09892747813501E-08  9.52484621149773E+00
 cg2d: Sum(rhs),rhsMax =  -9.10029882561503E-08  9.52339794221070E+00
 EXTERNAL_FIELDS_LOAD, it=   3600270 : Reading new data, i0,i1=    5    6 (prev=    4    5 )
 DIC_FIELDS_LOAD, it=   3600270 : Reading new data, i0,i1=    5    6 (prev=    4    5 )
 cg2d: Sum(rhs),rhsMax =  -9.10169930534721E-08  9.52191318167782E+00
 cg2d: Sum(rhs),rhsMax =  -9.10311257484864E-08  9.52041761022813E+00
 cg2d: Sum(rhs),rhsMax =  -9.10455213443129E-08  9.51892843351038E+00
 cg2d: Sum(rhs),rhsMax =  -9.10593485059508E-08  9.51746258399289E+00
 cg2d: Sum(rhs),rhsMax =  -9.10729625047679E-08  9.51603636817957E+00
 cg2d: Sum(rhs),rhsMax =  -9.10860507019606E-08  9.51466517931999E+00
 cg2d: Sum(rhs),rhsMax =  -9.10986344138109E-08  9.51336322967766E+00
 cg2d: Sum(rhs),rhsMax =  -9.11102233658312E-08  9.51214329321166E+00
 cg2d: Sum(rhs),rhsMax =  -9.11212367782355E-08  9.51101645114812E+00
 cg2d: Sum(rhs),rhsMax =  -9.11308219997409E-08  9.50999185515969E+00
 cg2d: Sum(rhs),rhsMax =  -9.11397606273567E-08  9.50907652378690E+00
 cg2d: Sum(rhs),rhsMax =  -9.11473847509114E-08  9.50827517814543E+00
 cg2d: Sum(rhs),rhsMax =  -9.11540354309182E-08  9.50759014752173E+00
 cg2d: Sum(rhs),rhsMax =  -9.11595421371203E-08  9.50702134377118E+00
 cg2d: Sum(rhs),rhsMax =  -9.11640682943471E-08  9.50656629011210E+00
 cg2d: Sum(rhs),rhsMax =  -9.11673012637948E-08  9.50622019182364E+00
 cg2d: Sum(rhs),rhsMax =  -9.11696744765322E-08  9.50597606771963E+00
 cg2d: Sum(rhs),rhsMax =  -9.11708539774736E-08  9.50582494250500E+00
 cg2d: Sum(rhs),rhsMax =  -9.11716497853376E-08  9.50575608648473E+00
 cg2d: Sum(rhs),rhsMax =  -9.11714224116622E-08  9.50575729587021E+00
 cg2d: Sum(rhs),rhsMax =  -9.11708468720462E-08  9.50581523373235E+00
 cg2d: Sum(rhs),rhsMax =  -9.11699018502077E-08  9.50591575069248E+00
 cg2d: Sum(rhs),rhsMax =  -9.11685589244371E-08  9.50604420974297E+00
 cg2d: Sum(rhs),rhsMax =  -9.11669744141363E-08  9.50618583284504E+00
 cg2d: Sum(rhs),rhsMax =  -9.11656883317846E-08  9.50632606101357E+00
 cg2d: Sum(rhs),rhsMax =  -9.11643525114414E-08  9.50645090757042E+00
 cg2d: Sum(rhs),rhsMax =  -9.11635567035773E-08  9.50654729113363E+00
 cg2d: Sum(rhs),rhsMax =  -9.11632938027651E-08  9.50660334354173E+00
 cg2d: Sum(rhs),rhsMax =  -9.11633009081925E-08  9.50660868062301E+00
 cg2d: Sum(rhs),rhsMax =  -9.11639332912273E-08  9.50655462562515E+00
 cg2d: Sum(rhs),rhsMax =  -9.11649706836215E-08  9.50643436311089E+00
 cg2d: Sum(rhs),rhsMax =  -9.11672302095212E-08  9.50624304674150E+00
 cg2d: Sum(rhs),rhsMax =  -9.11696460548228E-08  9.50597781905916E+00
 cg2d: Sum(rhs),rhsMax =  -9.11727440211507E-08  9.50563777710892E+00
 cg2d: Sum(rhs),rhsMax =  -9.11770854372662E-08  9.50522393135291E+00
 cg2d: Sum(rhs),rhsMax =  -9.11816186999204E-08  9.50473911463816E+00
 cg2d: Sum(rhs),rhsMax =  -9.11870614572763E-08  9.50418773930678E+00
 cg2d: Sum(rhs),rhsMax =  -9.11928168534359E-08  9.50357558691374E+00
 cg2d: Sum(rhs),rhsMax =  -9.11992827923314E-08  9.50290964447458E+00
 cg2d: Sum(rhs),rhsMax =  -9.12065729608003E-08  9.50219791542795E+00
 cg2d: Sum(rhs),rhsMax =  -9.12139270781154E-08  9.50144918276843E+00
 cg2d: Sum(rhs),rhsMax =  -9.12212811954305E-08  9.50067274580360E+00
 cg2d: Sum(rhs),rhsMax =  -9.12293955934729E-08  9.49987815929010E+00
 cg2d: Sum(rhs),rhsMax =  -9.12369131356172E-08  9.49907498366882E+00
 cg2d: Sum(rhs),rhsMax =  -9.12447788437021E-08  9.49827255755378E+00
 cg2d: Sum(rhs),rhsMax =  -9.12528008711888E-08  9.49747978836020E+00
 cg2d: Sum(rhs),rhsMax =  -9.12602686753416E-08  9.49670496341604E+00
 cg2d: Sum(rhs),rhsMax =  -9.12679780640246E-08  9.49595558374171E+00
 cg2d: Sum(rhs),rhsMax =  -9.12747850634332E-08  9.49523821505845E+00
 cg2d: Sum(rhs),rhsMax =  -9.12811941589098E-08  9.49455836839740E+00
 cg2d: Sum(rhs),rhsMax =  -9.12878306280618E-08  9.49392042323925E+00
 cg2d: Sum(rhs),rhsMax =  -9.12937139219139E-08  9.49332754785973E+00
 cg2d: Sum(rhs),rhsMax =  -9.12992632606802E-08  9.49278165465699E+00
 cg2d: Sum(rhs),rhsMax =  -9.13035833605136E-08  9.49228339433203E+00
 cg2d: Sum(rhs),rhsMax =  -9.13086424247922E-08  9.49183218209292E+00
 cg2d: Sum(rhs),rhsMax =  -9.13127422563775E-08  9.49142625728328E+00
 cg2d: Sum(rhs),rhsMax =  -9.13163518134752E-08  9.49106276286301E+00
 cg2d: Sum(rhs),rhsMax =  -9.13194782015125E-08  9.49073783789306E+00
 cg2d: Sum(rhs),rhsMax =  -9.13225406407037E-08  9.49044672400271E+00
 cg2d: Sum(rhs),rhsMax =  -9.13253046519458E-08  9.49018390323782E+00
 EXTERNAL_FIELDS_LOAD, it=   3600330 : Reading new data, i0,i1=    6    7 (prev=    5    6 )
 DIC_FIELDS_LOAD, it=   3600330 : Reading new data, i0,i1=    6    7 (prev=    5    6 )
 cg2d: Sum(rhs),rhsMax =  -9.13276210212643E-08  9.48994325700856E+00
 cg2d: Sum(rhs),rhsMax =  -9.13303352945150E-08  9.48970801758053E+00
 cg2d: Sum(rhs),rhsMax =  -9.13328221940901E-08  9.48946471682098E+00
 cg2d: Sum(rhs),rhsMax =  -9.13353943587936E-08  9.48919980375378E+00
 cg2d: Sum(rhs),rhsMax =  -9.13383644274290E-08  9.48889996251626E+00
 cg2d: Sum(rhs),rhsMax =  -9.13418460868343E-08  9.48855235316500E+00
 cg2d: Sum(rhs),rhsMax =  -9.13461093432488E-08  9.48814487205053E+00
 cg2d: Sum(rhs),rhsMax =  -9.13508344524416E-08  9.48766639266868E+00
 cg2d: Sum(rhs),rhsMax =  -9.13563624749258E-08  9.48710698236420E+00
 cg2d: Sum(rhs),rhsMax =  -9.13624518261713E-08  9.48645808347463E+00
 cg2d: Sum(rhs),rhsMax =  -9.13698130489138E-08  9.48571268422533E+00
 cg2d: Sum(rhs),rhsMax =  -9.13783111400335E-08  9.48486545850383E+00
 cg2d: Sum(rhs),rhsMax =  -9.13876760932908E-08  9.48391285858374E+00
 cg2d: Sum(rhs),rhsMax =  -9.13977800109933E-08  9.48285315351105E+00
 cg2d: Sum(rhs),rhsMax =  -9.14093334358768E-08  9.48168641391458E+00
 cg2d: Sum(rhs),rhsMax =  -9.14215760872139E-08  9.48041445516485E+00
 cg2d: Sum(rhs),rhsMax =  -9.14348703418000E-08  9.47904073781749E+00
 cg2d: Sum(rhs),rhsMax =  -9.14490314585237E-08  9.47757022510765E+00
 cg2d: Sum(rhs),rhsMax =  -9.14641802296501E-08  9.47600920384239E+00
 cg2d: Sum(rhs),rhsMax =  -9.14802384954783E-08  9.47436507523804E+00
 cg2d: Sum(rhs),rhsMax =  -9.14970428311790E-08  9.47264612546539E+00
 cg2d: Sum(rhs),rhsMax =  -9.15143658630768E-08  9.47086128598380E+00
 cg2d: Sum(rhs),rhsMax =  -9.15317244221114E-08  9.46901988541289E+00
 cg2d: Sum(rhs),rhsMax =  -9.15503548526431E-08  9.46713139755286E+00
 cg2d: Sum(rhs),rhsMax =  -9.15688005420634E-08  9.46520519129246E+00
 cg2d: Sum(rhs),rhsMax =  -9.15879354579374E-08  9.46325027783096E+00
 cg2d: Sum(rhs),rhsMax =  -9.16070561629567E-08  9.46127510172983E+00
 cg2d: Sum(rhs),rhsMax =  -9.16269016215665E-08  9.45928736176468E+00
 cg2d: Sum(rhs),rhsMax =  -9.16458375854745E-08  9.45729384446051E+00
 cg2d: Sum(rhs),rhsMax =  -9.16652354021608E-08  9.45530032221759E+00
 cg2d: Sum(rhs),rhsMax =  -9.16847469056847E-08  9.45331147339530E+00
 cg2d: Sum(rhs),rhsMax =  -9.17041660386531E-08  9.45133082537812E+00
 cg2d: Sum(rhs),rhsMax =  -9.17234714847837E-08  9.44936073119909E+00
 cg2d: Sum(rhs),rhsMax =  -9.17423008672813E-08  9.44740238220463E+00
 cg2d: Sum(rhs),rhsMax =  -9.17614002560185E-08  9.44545585645758E+00
 cg2d: Sum(rhs),rhsMax =  -9.17801870059520E-08  9.44352020252140E+00
 cg2d: Sum(rhs),rhsMax =  -9.17989737558855E-08  9.44159355733174E+00
 cg2d: Sum(rhs),rhsMax =  -9.18179097197935E-08  9.43967327626014E+00
 cg2d: Sum(rhs),rhsMax =  -9.18367177860091E-08  9.43775607395104E+00
 cg2d: Sum(rhs),rhsMax =  -9.18552629514124E-08  9.43583817490269E+00
 cg2d: Sum(rhs),rhsMax =  -9.18742912858761E-08  9.43391546318717E+00
 cg2d: Sum(rhs),rhsMax =  -9.18933977800407E-08  9.43198362529795E+00
 cg2d: Sum(rhs),rhsMax =  -9.19123053222393E-08  9.43003828806143E+00
 cg2d: Sum(rhs),rhsMax =  -9.19319091963189E-08  9.42807514245689E+00
 cg2d: Sum(rhs),rhsMax =  -9.19516196518089E-08  9.42609005034801E+00
 cg2d: Sum(rhs),rhsMax =  -9.19711453661876E-08  9.42407914155286E+00
 cg2d: Sum(rhs),rhsMax =  -9.19916374186869E-08  9.42203890101561E+00
 cg2d: Sum(rhs),rhsMax =  -9.20122005254598E-08  9.41996625280574E+00
 cg2d: Sum(rhs),rhsMax =  -9.20328773190704E-08  9.41785862954787E+00
 cg2d: Sum(rhs),rhsMax =  -9.20541722848611E-08  9.41571402403211E+00
 cg2d: Sum(rhs),rhsMax =  -9.20761920042423E-08  9.41353104362712E+00
 cg2d: Sum(rhs),rhsMax =  -9.20975224971698E-08  9.41130897700722E+00
 cg2d: Sum(rhs),rhsMax =  -9.21202243375774E-08  9.40904782014454E+00
 cg2d: Sum(rhs),rhsMax =  -9.21427556477283E-08  9.40674826682519E+00
 cg2d: Sum(rhs),rhsMax =  -9.21658624974953E-08  9.40441167656376E+00
 cg2d: Sum(rhs),rhsMax =  -9.21897651551262E-08  9.40204003109270E+00
 cg2d: Sum(rhs),rhsMax =  -9.22136393910478E-08  9.39963588692061E+00
 cg2d: Sum(rhs),rhsMax =  -9.22377765277815E-08  9.39720232327049E+00
 cg2d: Sum(rhs),rhsMax =  -9.22617147125493E-08  9.39474287623570E+00
 cg2d: Sum(rhs),rhsMax =  -9.22866476571471E-08  9.39226147078604E+00
 EXTERNAL_FIELDS_LOAD, it=   3600390 : Reading new data, i0,i1=    7    8 (prev=    6    7 )
 DIC_FIELDS_LOAD, it=   3600390 : Reading new data, i0,i1=    7    8 (prev=    6    7 )
 cg2d: Sum(rhs),rhsMax =  -9.23120353490958E-08  9.38976233427929E+00
 cg2d: Sum(rhs),rhsMax =  -9.23369185557021E-08  9.38724381347799E+00
 cg2d: Sum(rhs),rhsMax =  -9.23620930848301E-08  9.38470550458213E+00
 cg2d: Sum(rhs),rhsMax =  -9.23878431535741E-08  9.38214640732935E+00
 cg2d: Sum(rhs),rhsMax =  -9.24133303215058E-08  9.37956498127073E+00
 cg2d: Sum(rhs),rhsMax =  -9.24395564538827E-08  9.37695924403383E+00
 cg2d: Sum(rhs),rhsMax =  -9.24659673273709E-08  9.37432689628576E+00
 cg2d: Sum(rhs),rhsMax =  -9.24926268908166E-08  9.37166545130188E+00
 cg2d: Sum(rhs),rhsMax =  -9.25199330481519E-08  9.36897236493602E+00
 cg2d: Sum(rhs),rhsMax =  -9.25472107837777E-08  9.36624514198210E+00
 cg2d: Sum(rhs),rhsMax =  -9.25749148450450E-08  9.36348144222541E+00
 cg2d: Sum(rhs),rhsMax =  -9.26027894365689E-08  9.36067916467522E+00
 cg2d: Sum(rhs),rhsMax =  -9.26316801042049E-08  9.35783651518778E+00
 cg2d: Sum(rhs),rhsMax =  -9.26604357687211E-08  9.35495205473915E+00
 cg2d: Sum(rhs),rhsMax =  -9.26899872411013E-08  9.35202472862356E+00
 cg2d: Sum(rhs),rhsMax =  -9.27198087197212E-08  9.34905386050751E+00
 cg2d: Sum(rhs),rhsMax =  -9.27502270542391E-08  9.34603912446753E+00
 cg2d: Sum(rhs),rhsMax =  -9.27809580275607E-08  9.34298052032945E+00
 cg2d: Sum(rhs),rhsMax =  -9.28122148025068E-08  9.33987837125357E+00
 cg2d: Sum(rhs),rhsMax =  -9.28438836922396E-08  9.33673332003228E+00
 cg2d: Sum(rhs),rhsMax =  -9.28756591633828E-08  9.33354631509102E+00
 cg2d: Sum(rhs),rhsMax =  -9.29085999246126E-08  9.33031856217985E+00
 cg2d: Sum(rhs),rhsMax =  -9.29414056827227E-08  9.32705144157814E+00
 cg2d: Sum(rhs),rhsMax =  -9.29742824951063E-08  9.32374640924821E+00
 cg2d: Sum(rhs),rhsMax =  -9.30079835370634E-08  9.32040491207867E+00
 cg2d: Sum(rhs),rhsMax =  -9.30417982658582E-08  9.31702830536998E+00
 cg2d: Sum(rhs),rhsMax =  -9.30764798567907E-08  9.31361778906816E+00
 cg2d: Sum(rhs),rhsMax =  -9.31104011669959E-08  9.31017435680010E+00
 cg2d: Sum(rhs),rhsMax =  -9.31454593455783E-08  9.30669874783390E+00
 cg2d: Sum(rhs),rhsMax =  -9.31809367443748E-08  9.30319140183628E+00
 cg2d: Sum(rhs),rhsMax =  -9.32159238686836E-08  9.29965242032067E+00
 cg2d: Sum(rhs),rhsMax =  -9.32518702256857E-08  9.29608155387300E+00
 cg2d: Sum(rhs),rhsMax =  -9.32883352788849E-08  9.29247816276956E+00
 cg2d: Sum(rhs),rhsMax =  -9.33245232204172E-08  9.28884120452690E+00
 cg2d: Sum(rhs),rhsMax =  -9.33613577558390E-08  9.28516924951164E+00
 cg2d: Sum(rhs),rhsMax =  -9.33982562401070E-08  9.28146051649491E+00
 cg2d: Sum(rhs),rhsMax =  -9.34364479121541E-08  9.27771291851975E+00
 cg2d: Sum(rhs),rhsMax =  -9.34740143065937E-08  9.27392411497484E+00
 cg2d: Sum(rhs),rhsMax =  -9.35126251988549E-08  9.27009157616147E+00
 cg2d: Sum(rhs),rhsMax =  -9.35518329470142E-08  9.26621266064052E+00
 cg2d: Sum(rhs),rhsMax =  -9.35912964905583E-08  9.26228469753356E+00
 cg2d: Sum(rhs),rhsMax =  -9.36311082000429E-08  9.25830502540661E+00
 cg2d: Sum(rhs),rhsMax =  -9.36718080879473E-08  9.25427104022615E+00
 cg2d: Sum(rhs),rhsMax =  -9.37130835154676E-08  9.25018025806528E+00
 cg2d: Sum(rhs),rhsMax =  -9.37547639523473E-08  9.24603037476154E+00
 cg2d: Sum(rhs),rhsMax =  -9.37974888870485E-08  9.24181932462259E+00
 cg2d: Sum(rhs),rhsMax =  -9.38402919814507E-08  9.23754533703139E+00
 cg2d: Sum(rhs),rhsMax =  -9.38843172093584E-08  9.23320698439808E+00
 cg2d: Sum(rhs),rhsMax =  -9.39290814017113E-08  9.22880321317793E+00
 cg2d: Sum(rhs),rhsMax =  -9.39739734917566E-08  9.22433335164241E+00
 cg2d: Sum(rhs),rhsMax =  -9.40200521881707E-08  9.21979710173837E+00
 cg2d: Sum(rhs),rhsMax =  -9.40667135296280E-08  9.21519452384442E+00
 cg2d: Sum(rhs),rhsMax =  -9.41140712029664E-08  9.21052602027441E+00
 cg2d: Sum(rhs),rhsMax =  -9.41621181027585E-08  9.20579231856880E+00
 cg2d: Sum(rhs),rhsMax =  -9.42108115964402E-08  9.20099445172383E+00
 cg2d: Sum(rhs),rhsMax =  -9.42603506359774E-08  9.19613373409314E+00
 cg2d: Sum(rhs),rhsMax =  -9.43106570616692E-08  9.19121172891709E+00
 cg2d: Sum(rhs),rhsMax =  -9.43619582471911E-08  9.18623021276131E+00
 cg2d: Sum(rhs),rhsMax =  -9.44129254776271E-08  9.18119115032627E+00
 cg2d: Sum(rhs),rhsMax =  -9.44648874678933E-08  9.17609666859133E+00
 EXTERNAL_FIELDS_LOAD, it=   3600450 : Reading new data, i0,i1=    8    9 (prev=    7    8 )
 DIC_FIELDS_LOAD, it=   3600450 : Reading new data, i0,i1=    8    9 (prev=    7    8 )
 cg2d: Sum(rhs),rhsMax =  -9.45180929079470E-08  9.17094900539886E+00
 cg2d: Sum(rhs),rhsMax =  -9.45713196642828E-08  9.16576037761048E+00
 cg2d: Sum(rhs),rhsMax =  -9.46249869571147E-08  9.16053907873528E+00
 cg2d: Sum(rhs),rhsMax =  -9.46787679367844E-08  9.15529303788953E+00
 cg2d: Sum(rhs),rhsMax =  -9.47327123412833E-08  9.15002961005962E+00
 cg2d: Sum(rhs),rhsMax =  -9.47873814993727E-08  9.14475542293395E+00
 cg2d: Sum(rhs),rhsMax =  -9.48415888046839E-08  9.13947626776025E+00
 cg2d: Sum(rhs),rhsMax =  -9.48963148061921E-08  9.13419703804716E+00
 cg2d: Sum(rhs),rhsMax =  -9.49505718494947E-08  9.12892171232682E+00
 cg2d: Sum(rhs),rhsMax =  -9.50055820680973E-08  9.12365335338700E+00
 cg2d: Sum(rhs),rhsMax =  -9.50602441207593E-08  9.11839411243203E+00
 cg2d: Sum(rhs),rhsMax =  -9.51149274897034E-08  9.11314523538299E+00
 cg2d: Sum(rhs),rhsMax =  -9.51689713701853E-08  9.10790707134369E+00
 cg2d: Sum(rhs),rhsMax =  -9.52241663298992E-08  9.10267908920085E+00
 cg2d: Sum(rhs),rhsMax =  -9.52785583763216E-08  9.09745990818067E+00
 cg2d: Sum(rhs),rhsMax =  -9.53332346398383E-08  9.09224734512777E+00
 cg2d: Sum(rhs),rhsMax =  -9.53879322196372E-08  9.08703847736888E+00
 cg2d: Sum(rhs),rhsMax =  -9.54423811094784E-08  9.08182972075513E+00
 cg2d: Sum(rhs),rhsMax =  -9.54974623823546E-08  9.07661692347198E+00
 cg2d: Sum(rhs),rhsMax =  -9.55527141854873E-08  9.07139547821490E+00
 cg2d: Sum(rhs),rhsMax =  -9.56078878289190E-08  9.06616045270155E+00
 cg2d: Sum(rhs),rhsMax =  -9.56632462134621E-08  9.06090673305150E+00
 cg2d: Sum(rhs),rhsMax =  -9.57190593453561E-08  9.05562917574046E+00
 cg2d: Sum(rhs),rhsMax =  -9.57753982788745E-08  9.05032276301453E+00
 cg2d: Sum(rhs),rhsMax =  -9.58323127520089E-08  9.04498274779792E+00
 cg2d: Sum(rhs),rhsMax =  -9.58890566948867E-08  9.03960479010611E+00
 cg2d: Sum(rhs),rhsMax =  -9.59469090844323E-08  9.03418508103277E+00
 cg2d: Sum(rhs),rhsMax =  -9.60046975251316E-08  9.02872044807494E+00
 cg2d: Sum(rhs),rhsMax =  -9.60634949365158E-08  9.02320843719522E+00
 cg2d: Sum(rhs),rhsMax =  -9.61234505325592E-08  9.01764736350553E+00
 cg2d: Sum(rhs),rhsMax =  -9.61829158541150E-08  9.01203632711249E+00
 cg2d: Sum(rhs),rhsMax =  -9.62436175200310E-08  9.00637519234014E+00
 cg2d: Sum(rhs),rhsMax =  -9.63047241953063E-08  9.00066454100738E+00
 cg2d: Sum(rhs),rhsMax =  -9.63663566722062E-08  8.99490560644289E+00
 cg2d: Sum(rhs),rhsMax =  -9.64286215321408E-08  8.98910019830229E+00
 cg2d: Sum(rhs),rhsMax =  -9.64914832479735E-08  8.98325060608421E+00
 cg2d: Sum(rhs),rhsMax =  -9.65549631359863E-08  8.97735949860674E+00
 cg2d: Sum(rhs),rhsMax =  -9.66191180395981E-08  8.97142982445055E+00
 cg2d: Sum(rhs),rhsMax =  -9.66832942594920E-08  8.96546471599943E+00
 cg2d: Sum(rhs),rhsMax =  -9.67482520763951E-08  8.95946740124540E+00
 cg2d: Sum(rhs),rhsMax =  -9.68132098932983E-08  8.95344112713886E+00
 cg2d: Sum(rhs),rhsMax =  -9.68790274669118E-08  8.94738909112794E+00
 cg2d: Sum(rhs),rhsMax =  -9.69447810916790E-08  8.94131438207753E+00
 cg2d: Sum(rhs),rhsMax =  -9.70111884157632E-08  8.93521991327319E+00
 cg2d: Sum(rhs),rhsMax =  -9.70773115227530E-08  8.92910833888471E+00
 cg2d: Sum(rhs),rhsMax =  -9.71445075492738E-08  8.92298199747039E+00
 cg2d: Sum(rhs),rhsMax =  -9.72113554098541E-08  8.91684290726808E+00
 cg2d: Sum(rhs),rhsMax =  -9.72787574937684E-08  8.91069264633776E+00
 cg2d: Sum(rhs),rhsMax =  -9.73459535202892E-08  8.90453228797114E+00
 cg2d: Sum(rhs),rhsMax =  -9.74135971887335E-08  8.89836249714105E+00
 cg2d: Sum(rhs),rhsMax =  -9.74817027099562E-08  8.89218368115518E+00
 cg2d: Sum(rhs),rhsMax =  -9.75496519117769E-08  8.88599608996445E+00
 cg2d: Sum(rhs),rhsMax =  -9.76179350686834E-08  8.87979980032782E+00
 cg2d: Sum(rhs),rhsMax =  -9.76860476953334E-08  8.87359466021019E+00
 cg2d: Sum(rhs),rhsMax =  -9.77549490244201E-08  8.86737992136571E+00
 cg2d: Sum(rhs),rhsMax =  -9.78237792992331E-08  8.86115449881272E+00
 cg2d: Sum(rhs),rhsMax =  -9.78925882577641E-08  8.85491714939279E+00
 cg2d: Sum(rhs),rhsMax =  -9.79620651264668E-08  8.84866650814923E+00
 cg2d: Sum(rhs),rhsMax =  -9.80318830556826E-08  8.84239908862083E+00
 cg2d: Sum(rhs),rhsMax =  -9.81016583523342E-08  8.83611205511795E+00
 EXTERNAL_FIELDS_LOAD, it=   3600510 : Reading new data, i0,i1=    9   10 (prev=    8    9 )
 DIC_FIELDS_LOAD, it=   3600510 : Reading new data, i0,i1=    9   10 (prev=    8    9 )
 cg2d: Sum(rhs),rhsMax =  -9.81721868242857E-08  8.82980306034887E+00
 cg2d: Sum(rhs),rhsMax =  -9.82427721396562E-08  8.82347164349139E+00
 cg2d: Sum(rhs),rhsMax =  -9.83135990395567E-08  8.81711735596894E+00
 cg2d: Sum(rhs),rhsMax =  -9.83851720093298E-08  8.81074020360017E+00
 cg2d: Sum(rhs),rhsMax =  -9.84564962891454E-08  8.80434063629974E+00
 cg2d: Sum(rhs),rhsMax =  -9.85286376931072E-08  8.79791959804717E+00
 cg2d: Sum(rhs),rhsMax =  -9.86011414738641E-08  8.79147850051498E+00
 cg2d: Sum(rhs),rhsMax =  -9.86734960406466E-08  8.78501923806664E+00
 cg2d: Sum(rhs),rhsMax =  -9.87464900958912E-08  8.77854412431977E+00
 cg2d: Sum(rhs),rhsMax =  -9.88197470519481E-08  8.77205585109022E+00
 cg2d: Sum(rhs),rhsMax =  -9.88934729662105E-08  8.76555740298602E+00
 cg2d: Sum(rhs),rhsMax =  -9.89669146633787E-08  8.75905198910442E+00
 cg2d: Sum(rhs),rhsMax =  -9.90407258427695E-08  8.75254295465281E+00
 cg2d: Sum(rhs),rhsMax =  -9.91145014950234E-08  8.74603368964057E+00
 cg2d: Sum(rhs),rhsMax =  -9.91886466295000E-08  8.73952755244439E+00
 cg2d: Sum(rhs),rhsMax =  -9.92623157003436E-08  8.73302782624689E+00
 cg2d: Sum(rhs),rhsMax =  -9.93363400425551E-08  8.72653766294564E+00
 cg2d: Sum(rhs),rhsMax =  -9.94104141227581E-08  8.72006002219781E+00
 cg2d: Sum(rhs),rhsMax =  -9.94844668866790E-08  8.71359759621992E+00
 cg2d: Sum(rhs),rhsMax =  -9.95583775420528E-08  8.70715278372291E+00
 cg2d: Sum(rhs),rhsMax =  -9.96322597757171E-08  8.70072771032166E+00
 cg2d: Sum(rhs),rhsMax =  -9.97059714791249E-08  8.69432422374462E+00
 cg2d: Sum(rhs),rhsMax =  -9.97792923840279E-08  8.68794392220557E+00
 cg2d: Sum(rhs),rhsMax =  -9.98527127649140E-08  8.68159287495532E+00
 cg2d: Sum(rhs),rhsMax =  -9.99256144496030E-08  8.67527594836007E+00
 cg2d: Sum(rhs),rhsMax =  -9.99983740257449E-08  8.66899648662334E+00
 cg2d: Sum(rhs),rhsMax =  -1.00070764119664E-07  8.66275674813775E+00
 cg2d: Sum(rhs),rhsMax =  -1.00142791836788E-07  8.65655808426570E+00
 cg2d: Sum(rhs),rhsMax =  -1.00214123222031E-07  8.65040095427649E+00
 cg2d: Sum(rhs),rhsMax =  -1.00285419080137E-07  8.64428511771589E+00
 cg2d: Sum(rhs),rhsMax =  -1.00356203347474E-07  8.63820779072895E+00
 cg2d: Sum(rhs),rhsMax =  -1.00426881033400E-07  8.63216610266613E+00
 cg2d: Sum(rhs),rhsMax =  -1.00497182131676E-07  8.62615664857018E+00
 cg2d: Sum(rhs),rhsMax =  -1.00566929006618E-07  8.62017549344574E+00
 cg2d: Sum(rhs),rhsMax =  -1.00636839306389E-07  8.61421824973427E+00
 cg2d: Sum(rhs),rhsMax =  -1.00706515127058E-07  8.60828014305759E+00
 cg2d: Sum(rhs),rhsMax =  -1.00776318845419E-07  8.60235619466164E+00
 cg2d: Sum(rhs),rhsMax =  -1.00845916506387E-07  8.59644141396147E+00
 cg2d: Sum(rhs),rhsMax =  -1.00915485745645E-07  8.59053104903554E+00
 cg2d: Sum(rhs),rhsMax =  -1.00985261042297E-07  8.58462072248315E+00
 cg2d: Sum(rhs),rhsMax =  -1.01055491086299E-07  8.57870663714626E+00
 cg2d: Sum(rhs),rhsMax =  -1.01125422702353E-07  8.57278566865890E+00
 cg2d: Sum(rhs),rhsMax =  -1.01195716695202E-07  8.56685532083521E+00
 cg2d: Sum(rhs),rhsMax =  -1.01266216745444E-07  8.56091374139585E+00
 cg2d: Sum(rhs),rhsMax =  -1.01337192859319E-07  8.55495975914983E+00
 cg2d: Sum(rhs),rhsMax =  -1.01408346608878E-07  8.54899275863313E+00
 cg2d: Sum(rhs),rhsMax =  -1.01479535885574E-07  8.54301265247851E+00
 cg2d: Sum(rhs),rhsMax =  -1.01551435705005E-07  8.53701978569626E+00
 cg2d: Sum(rhs),rhsMax =  -1.01622724457684E-07  8.53101490472480E+00
 cg2d: Sum(rhs),rhsMax =  -1.01695292187287E-07  8.52499919193590E+00
 cg2d: Sum(rhs),rhsMax =  -1.01767554383514E-07  8.51897431341724E+00
 cg2d: Sum(rhs),rhsMax =  -1.01840242905382E-07  8.51294235247767E+00
 cg2d: Sum(rhs),rhsMax =  -1.01912846162122E-07  8.50690569200869E+00
 cg2d: Sum(rhs),rhsMax =  -1.01985413891725E-07  8.50087005576702E+00
 cg2d: Sum(rhs),rhsMax =  -1.02058450579534E-07  8.49484015017416E+00
 cg2d: Sum(rhs),rhsMax =  -1.02131188839394E-07  8.48882063673028E+00
 cg2d: Sum(rhs),rhsMax =  -1.02203856044980E-07  8.48281607441673E+00
 cg2d: Sum(rhs),rhsMax =  -1.02276672464541E-07  8.47683086082370E+00
 cg2d: Sum(rhs),rhsMax =  -1.02349595465512E-07  8.47086915096995E+00
 cg2d: Sum(rhs),rhsMax =  -1.02421360281824E-07  8.46493476809303E+00
 EXTERNAL_FIELDS_LOAD, it=   3600570 : Reading new data, i0,i1=   10   11 (prev=    9   10 )
 DIC_FIELDS_LOAD, it=   3600570 : Reading new data, i0,i1=   10   11 (prev=    9   10 )
 cg2d: Sum(rhs),rhsMax =  -1.02493515896640E-07  8.45903109783263E+00
 cg2d: Sum(rhs),rhsMax =  -1.02564975179575E-07  8.45319648993583E+00
 cg2d: Sum(rhs),rhsMax =  -1.02634501786270E-07  8.44745634270964E+00
 cg2d: Sum(rhs),rhsMax =  -1.02703893389844E-07  8.44183524325516E+00
 cg2d: Sum(rhs),rhsMax =  -1.02770819410125E-07  8.43635626330932E+00
 cg2d: Sum(rhs),rhsMax =  -1.02836231974379E-07  8.43104036727980E+00
 cg2d: Sum(rhs),rhsMax =  -1.02899214482477E-07  8.42590597581903E+00
 cg2d: Sum(rhs),rhsMax =  -1.02960150627496E-07  8.42096861540595E+00
 cg2d: Sum(rhs),rhsMax =  -1.03018727770632E-07  8.41624063283881E+00
 cg2d: Sum(rhs),rhsMax =  -1.03074462742825E-07  8.41173099284368E+00
 cg2d: Sum(rhs),rhsMax =  -1.03127582917750E-07  8.40744522364360E+00
 cg2d: Sum(rhs),rhsMax =  -1.03177704602331E-07  8.40338548638234E+00
 cg2d: Sum(rhs),rhsMax =  -1.03225289649345E-07  8.39955071057647E+00
 cg2d: Sum(rhs),rhsMax =  -1.03270444640202E-07  8.39593686353065E+00
 cg2d: Sum(rhs),rhsMax =  -1.03312800092681E-07  8.39253726007720E+00
 cg2d: Sum(rhs),rhsMax =  -1.03352554958747E-07  8.38934286490718E+00
 cg2d: Sum(rhs),rhsMax =  -1.03389886874083E-07  8.38634267692018E+00
 cg2d: Sum(rhs),rhsMax =  -1.03425186637196E-07  8.38352418466840E+00
 cg2d: Sum(rhs),rhsMax =  -1.03458575040349E-07  8.38087384792736E+00
 cg2d: Sum(rhs),rhsMax =  -1.03489654179612E-07  8.37837764295235E+00
 cg2d: Sum(rhs),rhsMax =  -1.03519347760539E-07  8.37602165023152E+00
 cg2d: Sum(rhs),rhsMax =  -1.03547364460610E-07  8.37379265495454E+00
 cg2d: Sum(rhs),rhsMax =  -1.03573896126363E-07  8.37167859305842E+00
 cg2d: Sum(rhs),rhsMax =  -1.03599155920620E-07  8.36966841617237E+00
 cg2d: Sum(rhs),rhsMax =  -1.03623357006200E-07  8.36775262363169E+00
 cg2d: Sum(rhs),rhsMax =  -1.03646584648232E-07  8.36592322530019E+00
 cg2d: Sum(rhs),rhsMax =  -1.03668426731929E-07  8.36417370361670E+00
 cg2d: Sum(rhs),rhsMax =  -1.03689806962848E-07  8.36249893566327E+00
 cg2d: Sum(rhs),rhsMax =  -1.03710164012227E-07  8.36089512198643E+00
 cg2d: Sum(rhs),rhsMax =  -1.03729064448999E-07  8.35935972193128E+00
 cg2d: Sum(rhs),rhsMax =  -1.03747986202052E-07  8.35789132052859E+00
 cg2d: Sum(rhs),rhsMax =  -1.03765373182796E-07  8.35648953984663E+00
 cg2d: Sum(rhs),rhsMax =  -1.03782369365035E-07  8.35515503666620E+00
 cg2d: Sum(rhs),rhsMax =  -1.03798733164240E-07  8.35388959337713E+00
 cg2d: Sum(rhs),rhsMax =  -1.03813491136862E-07  8.35269612989214E+00
 cg2d: Sum(rhs),rhsMax =  -1.03827638042731E-07  8.35157865319166E+00
 cg2d: Sum(rhs),rhsMax =  -1.03841280463257E-07  8.35054220321588E+00
 cg2d: Sum(rhs),rhsMax =  -1.03853331268056E-07  8.34959282244478E+00
 cg2d: Sum(rhs),rhsMax =  -1.03864024936229E-07  8.34873757212784E+00
 cg2d: Sum(rhs),rhsMax =  -1.03873794898846E-07  8.34798443944571E+00
 cg2d: Sum(rhs),rhsMax =  -1.03881951929452E-07  8.34734205444848E+00
 cg2d: Sum(rhs),rhsMax =  -1.03888730507151E-07  8.34681927427749E+00
 cg2d: Sum(rhs),rhsMax =  -1.03893782466002E-07  8.34642479662444E+00
 cg2d: Sum(rhs),rhsMax =  -1.03896695691219E-07  8.34616690162161E+00
 cg2d: Sum(rhs),rhsMax =  -1.03898251779810E-07  8.34605328416144E+00
 cg2d: Sum(rhs),rhsMax =  -1.03897747294468E-07  8.34609086201575E+00
 cg2d: Sum(rhs),rhsMax =  -1.03895416714295E-07  8.34628560159372E+00
 cg2d: Sum(rhs),rhsMax =  -1.03891132141598E-07  8.34664238294981E+00
 cg2d: Sum(rhs),rhsMax =  -1.03884730151549E-07  8.34716488141953E+00
 cg2d: Sum(rhs),rhsMax =  -1.03876232060429E-07  8.34785544920597E+00
 cg2d: Sum(rhs),rhsMax =  -1.03865339440290E-07  8.34871504733891E+00
 cg2d: Sum(rhs),rhsMax =  -1.03852393351644E-07  8.34974320296400E+00
 cg2d: Sum(rhs),rhsMax =  -1.03837578535604E-07  8.35093803633076E+00
 cg2d: Sum(rhs),rhsMax =  -1.03820866570459E-07  8.35229628921908E+00
 cg2d: Sum(rhs),rhsMax =  -1.03801575335183E-07  8.35381348895399E+00
 cg2d: Sum(rhs),rhsMax =  -1.03780770643880E-07  8.35548405560547E+00
 cg2d: Sum(rhs),rhsMax =  -1.03758168279455E-07  8.35730145035772E+00
 cg2d: Sum(rhs),rhsMax =  -1.03734052459004E-07  8.35925834161856E+00
 cg2d: Sum(rhs),rhsMax =  -1.03707641585515E-07  8.36134677020027E+00
 cg2d: Sum(rhs),rhsMax =  -1.03680264373907E-07  8.36355833544679E+00
 EXTERNAL_FIELDS_LOAD, it=   3600630 : Reading new data, i0,i1=   11   12 (prev=   10   11 )
 DIC_FIELDS_LOAD, it=   3600630 : Reading new data, i0,i1=   11   12 (prev=   10   11 )
 cg2d: Sum(rhs),rhsMax =  -1.03651167648877E-07  8.36588437297216E+00
 cg2d: Sum(rhs),rhsMax =  -1.03620983793462E-07  8.36829873825493E+00
 cg2d: Sum(rhs),rhsMax =  -1.03590167555012E-07  8.37078098256463E+00
 cg2d: Sum(rhs),rhsMax =  -1.03558832620365E-07  8.37331076990736E+00
 cg2d: Sum(rhs),rhsMax =  -1.03526986094948E-07  8.37586828475342E+00
 cg2d: Sum(rhs),rhsMax =  -1.03494969039275E-07  8.37843651347270E+00
 cg2d: Sum(rhs),rhsMax =  -1.03462959089029E-07  8.38100058596186E+00
 cg2d: Sum(rhs),rhsMax =  -1.03431759157502E-07  8.38354800119352E+00
 cg2d: Sum(rhs),rhsMax =  -1.03400431328282E-07  8.38606907281455E+00
 cg2d: Sum(rhs),rhsMax =  -1.03369536930131E-07  8.38855705740912E+00
 cg2d: Sum(rhs),rhsMax =  -1.03339182544460E-07  8.39100818777902E+00
 cg2d: Sum(rhs),rhsMax =  -1.03309091059600E-07  8.39342162927294E+00
 cg2d: Sum(rhs),rhsMax =  -1.03279326424399E-07  8.39579937673915E+00
 cg2d: Sum(rhs),rhsMax =  -1.03250158645096E-07  8.39814606298476E+00
 cg2d: Sum(rhs),rhsMax =  -1.03221587721691E-07  8.40046867037939E+00
 cg2d: Sum(rhs),rhsMax =  -1.03192640210636E-07  8.40277617859981E+00
 cg2d: Sum(rhs),rhsMax =  -1.03164317977189E-07  8.40507915533000E+00
 cg2d: Sum(rhs),rhsMax =  -1.03135583628955E-07  8.40738929078001E+00
 cg2d: Sum(rhs),rhsMax =  -1.03106465587643E-07  8.40971893982490E+00
 cg2d: Sum(rhs),rhsMax =  -1.03077603341717E-07  8.41208069021930E+00
 cg2d: Sum(rhs),rhsMax =  -1.03047760546815E-07  8.41448664736628E+00
 cg2d: Sum(rhs),rhsMax =  -1.03017328001442E-07  8.41694808963461E+00
 cg2d: Sum(rhs),rhsMax =  -1.02985850958248E-07  8.41947641344255E+00
 cg2d: Sum(rhs),rhsMax =  -1.02953762848301E-07  8.42209465677943E+00
 cg2d: Sum(rhs),rhsMax =  -1.02920779454507E-07  8.42481840011152E+00
 cg2d: Sum(rhs),rhsMax =  -1.02885756803062E-07  8.42766143831664E+00
 cg2d: Sum(rhs),rhsMax =  -1.02849760708068E-07  8.43063562227923E+00
 cg2d: Sum(rhs),rhsMax =  -1.02811505087175E-07  8.43375048923612E+00
 cg2d: Sum(rhs),rhsMax =  -1.02771743115682E-07  8.43701312183894E+00
 cg2d: Sum(rhs),rhsMax =  -1.02730268736195E-07  8.44042805498092E+00
 cg2d: Sum(rhs),rhsMax =  -1.02686364300553E-07  8.44399728026233E+00
 cg2d: Sum(rhs),rhsMax =  -1.02641237731405E-07  8.44772028674299E+00
 cg2d: Sum(rhs),rhsMax =  -1.02594057693750E-07  8.45159419183708E+00
 cg2d: Sum(rhs),rhsMax =  -1.02545079982974E-07  8.45561389463918E+00
 cg2d: Sum(rhs),rhsMax =  -1.02494418285914E-07  8.45977229544668E+00
 cg2d: Sum(rhs),rhsMax =  -1.02442626825905E-07  8.46406043486096E+00
 cg2d: Sum(rhs),rhsMax =  -1.02389186906748E-07  8.46846786249842E+00
 cg2d: Sum(rhs),rhsMax =  -1.02334411167249E-07  8.47298294092153E+00
 cg2d: Sum(rhs),rhsMax =  -1.02278569613645E-07  8.47759310010859E+00
 cg2d: Sum(rhs),rhsMax =  -1.02221783038203E-07  8.48228511495217E+00
 cg2d: Sum(rhs),rhsMax =  -1.02164435134000E-07  8.48704540520819E+00
 cg2d: Sum(rhs),rhsMax =  -1.02106639587873E-07  8.49186038102640E+00
 cg2d: Sum(rhs),rhsMax =  -1.02048161920720E-07  8.49671683330553E+00
 cg2d: Sum(rhs),rhsMax =  -1.01989222400789E-07  8.50160229731839E+00
 cg2d: Sum(rhs),rhsMax =  -1.01930119456028E-07  8.50650541756349E+00
 cg2d: Sum(rhs),rhsMax =  -1.01871734159431E-07  8.51141606286167E+00
 cg2d: Sum(rhs),rhsMax =  -1.01813114383731E-07  8.51632550458549E+00
 cg2d: Sum(rhs),rhsMax =  -1.01754352499484E-07  8.52122658728227E+00
 cg2d: Sum(rhs),rhsMax =  -1.01695938781177E-07  8.52611387363114E+00
 cg2d: Sum(rhs),rhsMax =  -1.01637908755947E-07  8.53098375482528E+00
 cg2d: Sum(rhs),rhsMax =  -1.01580091893538E-07  8.53583450654913E+00
 cg2d: Sum(rhs),rhsMax =  -1.01522516615660E-07  8.54066629803099E+00
 cg2d: Sum(rhs),rhsMax =  -1.01465325030858E-07  8.54548114840508E+00
 cg2d: Sum(rhs),rhsMax =  -1.01408510033707E-07  8.55028281355603E+00
 cg2d: Sum(rhs),rhsMax =  -1.01351844250530E-07  8.55507663782142E+00
 cg2d: Sum(rhs),rhsMax =  -1.01294901355686E-07  8.55986938569464E+00
 cg2d: Sum(rhs),rhsMax =  -1.01238242677937E-07  8.56466907941720E+00
 cg2d: Sum(rhs),rhsMax =  -1.01181711897880E-07  8.56948481849350E+00
 cg2d: Sum(rhs),rhsMax =  -1.01124427942523E-07  8.57432655386490E+00
 cg2d: Sum(rhs),rhsMax =  -1.01066994773191E-07  8.57920482306538E+00
 EXTERNAL_FIELDS_LOAD, it=   3600690 : Reading new data, i0,i1=   12    1 (prev=   11   12 )
 DIC_FIELDS_LOAD, it=   3600690 : Reading new data, i0,i1=   12    1 (prev=   11   12 )
 cg2d: Sum(rhs),rhsMax =  -1.01009099751082E-07  8.58413045456863E+00
 cg2d: Sum(rhs),rhsMax =  -1.00950970249869E-07  8.58908772075261E+00
 cg2d: Sum(rhs),rhsMax =  -1.00892201260194E-07  8.59407113784658E+00
 cg2d: Sum(rhs),rhsMax =  -1.00833979388426E-07  8.59907533504329E+00
 cg2d: Sum(rhs),rhsMax =  -1.00775366718153E-07  8.60409527812640E+00
 cg2d: Sum(rhs),rhsMax =  -1.00716533779632E-07  8.60912639608676E+00
 cg2d: Sum(rhs),rhsMax =  -1.00657807422522E-07  8.61416467727663E+00
 cg2d: Sum(rhs),rhsMax =  -1.00599194752249E-07  8.61920670304104E+00
 cg2d: Sum(rhs),rhsMax =  -1.00540219705181E-07  8.62424959025954E+00
 cg2d: Sum(rhs),rhsMax =  -1.00481713616318E-07  8.62929084710763E+00
 cg2d: Sum(rhs),rhsMax =  -1.00423278581729E-07  8.63432823431656E+00
 cg2d: Sum(rhs),rhsMax =  -1.00365085131671E-07  8.63935967110789E+00
 cg2d: Sum(rhs),rhsMax =  -1.00306984052168E-07  8.64438326330631E+00
 cg2d: Sum(rhs),rhsMax =  -1.00248698231553E-07  8.64939736363611E+00
 cg2d: Sum(rhs),rhsMax =  -1.00191144269957E-07  8.65440069908248E+00
 cg2d: Sum(rhs),rhsMax =  -1.00133568992078E-07  8.65939260929048E+00
 cg2d: Sum(rhs),rhsMax =  -1.00076100295610E-07  8.66437312037654E+00
 cg2d: Sum(rhs),rhsMax =  -1.00019036608501E-07  8.66934290835576E+00
 cg2d: Sum(rhs),rhsMax =  -9.99617597585711E-08  8.67430225124478E+00
 cg2d: Sum(rhs),rhsMax =  -9.99047102823170E-08  8.67925494682890E+00
 cg2d: Sum(rhs),rhsMax =  -9.98482363456787E-08  8.68420608713978E+00
 cg2d: Sum(rhs),rhsMax =  -9.97913716105359E-08  8.68916081980566E+00
 cg2d: Sum(rhs),rhsMax =  -9.97343434505638E-08  8.69412416784580E+00
 cg2d: Sum(rhs),rhsMax =  -9.96773295014464E-08  8.69910085245627E+00
 cg2d: Sum(rhs),rhsMax =  -9.96202871306195E-08  8.70409517445086E+00
 cg2d: Sum(rhs),rhsMax =  -9.95629250155616E-08  8.70911095741398E+00
 cg2d: Sum(rhs),rhsMax =  -9.95059110664442E-08  8.71415148969223E+00
 cg2d: Sum(rhs),rhsMax =  -9.94480160443345E-08  8.71921930590513E+00
 cg2d: Sum(rhs),rhsMax =  -9.93902702361993E-08  8.72431607432102E+00
 cg2d: Sum(rhs),rhsMax =  -9.93317215147727E-08  8.72944261226047E+00
 cg2d: Sum(rhs),rhsMax =  -9.92735280647139E-08  8.73459893266904E+00
 cg2d: Sum(rhs),rhsMax =  -9.92147448641845E-08  8.73978430818157E+00
 cg2d: Sum(rhs),rhsMax =  -9.91560966667748E-08  8.74499735837366E+00
 cg2d: Sum(rhs),rhsMax =  -9.90966526615011E-08  8.75023614706347E+00
 cg2d: Sum(rhs),rhsMax =  -9.90366970654577E-08  8.75549829188909E+00
 cg2d: Sum(rhs),rhsMax =  -9.89772743764661E-08  8.76078107848702E+00
 cg2d: Sum(rhs),rhsMax =  -9.89177024735000E-08  8.76608155580086E+00
 cg2d: Sum(rhs),rhsMax =  -9.88579742511320E-08  8.77139664107964E+00
 cg2d: Sum(rhs),rhsMax =  -9.87977060162848E-08  8.77672320795606E+00
 cg2d: Sum(rhs),rhsMax =  -9.87382264838743E-08  8.78205816635757E+00
(PID.TID 0000.0001) Did not write pickup because writePickupAtEnd = FALSE
 DIC_SURFFORCING_INIT, it=   3600000 : Reading new data, i0,i1=   12    1
 QQ: pCO2 approximation method
 QQ first guess pH 8.2869849781645275,  7.129213793781922,  34.1535348423009,  2.0282,  5.43799999999999991E-4,  8.08490416966378689E-3,  2.3086000000000002
(PID.TID 0000.0001) // =======================================================
(PID.TID 0000.0001) // Model current state
(PID.TID 0000.0001) // =======================================================
(PID.TID 0000.0001) 
 EXTERNAL_FIELDS_LOAD, it=   3600000 : Reading new data, i0,i1=   12    1 (prev=   12    0 )
 DIC_FIELDS_LOAD, it=   3600000 : Reading new data, i0,i1=   12    1 (prev=   12    0 )
 cg2d: Sum(rhs),rhsMax =  -9.92433868418630E-08  8.73439671821315E+00
 cg2d: Sum(rhs),rhsMax =  -9.91844260056496E-08  8.73957958587058E+00
 cg2d: Sum(rhs),rhsMax =  -9.91252449011881E-08  8.74478969091806E+00
 cg2d: Sum(rhs),rhsMax =  -9.90665185440776E-08  8.75002495477880E+00
 cg2d: Sum(rhs),rhsMax =  -9.90068542705558E-08  8.75528284057604E+00
 cg2d: Sum(rhs),rhsMax =  -9.89473534218632E-08  8.76056047500076E+00
 cg2d: Sum(rhs),rhsMax =  -9.88878241514612E-08  8.76585475900637E+00
 cg2d: Sum(rhs),rhsMax =  -9.88279893476829E-08  8.77116249138180E+00
 cg2d: Sum(rhs),rhsMax =  -9.87682469144602E-08  8.77648047471154E+00
 cg2d: Sum(rhs),rhsMax =  -9.87087602766223E-08  8.78180560756084E+00
 cg2d: Sum(rhs),rhsMax =  -9.86489112619893E-08  8.78713494778165E+00
 cg2d: Sum(rhs),rhsMax =  -9.85891404070571E-08  8.79246575399440E+00
 cg2d: Sum(rhs),rhsMax =  -9.85293340249882E-08  8.79779549299699E+00
 cg2d: Sum(rhs),rhsMax =  -9.84700747608258E-08  8.80312181092759E+00
 cg2d: Sum(rhs),rhsMax =  -9.84108581292276E-08  8.80844249631459E+00
 cg2d: Sum(rhs),rhsMax =  -9.83516486030567E-08  8.81375547068360E+00
 cg2d: Sum(rhs),rhsMax =  -9.82926522397065E-08  8.81905885446822E+00
 cg2d: Sum(rhs),rhsMax =  -9.82337553523394E-08  8.82435106608147E+00
 cg2d: Sum(rhs),rhsMax =  -9.81751568929212E-08  8.82963093738125E+00
 cg2d: Sum(rhs),rhsMax =  -9.81166650149135E-08  8.83489782452132E+00
 cg2d: Sum(rhs),rhsMax =  -9.80585213028462E-08  8.84015168145881E+00
 cg2d: Sum(rhs),rhsMax =  -9.80007470730015E-08  8.84539306572338E+00
 cg2d: Sum(rhs),rhsMax =  -9.79429586323022E-08  8.85062306296846E+00
 cg2d: Sum(rhs),rhsMax =  -9.78853904598509E-08  8.85584316140559E+00
 cg2d: Sum(rhs),rhsMax =  -9.78280425556477E-08  8.86105508303604E+00
 cg2d: Sum(rhs),rhsMax =  -9.77709291305473E-08  8.86626061391844E+00
 cg2d: Sum(rhs),rhsMax =  -9.77132472712583E-08  8.87146147123075E+00
 cg2d: Sum(rhs),rhsMax =  -9.76563327981239E-08  8.87665923110881E+00
 cg2d: Sum(rhs),rhsMax =  -9.75990843699037E-08  8.88185530584736E+00
 cg2d: Sum(rhs),rhsMax =  -9.75420704207863E-08  8.88705095973601E+00
 EXTERNAL_FIELDS_LOAD, it=   3600030 : Reading new data, i0,i1=    1    2 (prev=   12    1 )
 DIC_FIELDS_LOAD, it=   3600030 : Reading new data, i0,i1=    1    2 (prev=   12    1 )
 cg2d: Sum(rhs),rhsMax =  -9.74853406887632E-08  8.89224735691429E+00
 cg2d: Sum(rhs),rhsMax =  -9.74287814869967E-08  8.89742706375180E+00
 cg2d: Sum(rhs),rhsMax =  -9.73723857100595E-08  8.90258000132907E+00
 cg2d: Sum(rhs),rhsMax =  -9.73164659967551E-08  8.90769672951691E+00
 cg2d: Sum(rhs),rhsMax =  -9.72612284044772E-08  8.91276878246959E+00
 cg2d: Sum(rhs),rhsMax =  -9.72070637317302E-08  8.91778889429735E+00
 cg2d: Sum(rhs),rhsMax =  -9.71530482729577E-08  8.92275113682099E+00
 cg2d: Sum(rhs),rhsMax =  -9.70993241367069E-08  8.92765100404361E+00
 cg2d: Sum(rhs),rhsMax =  -9.70471916161841E-08  8.93248545016401E+00
 cg2d: Sum(rhs),rhsMax =  -9.69955280538670E-08  8.93725287491615E+00
 cg2d: Sum(rhs),rhsMax =  -9.69441273923621E-08  8.94195305183593E+00
 cg2d: Sum(rhs),rhsMax =  -9.68941833434656E-08  8.94658701582531E+00
 cg2d: Sum(rhs),rhsMax =  -9.68450208915783E-08  8.95115692214719E+00
 cg2d: Sum(rhs),rhsMax =  -9.67962705544778E-08  8.95566589123099E+00
 cg2d: Sum(rhs),rhsMax =  -9.67482165492584E-08  8.96011786358850E+00
 cg2d: Sum(rhs),rhsMax =  -9.67008020325011E-08  8.96451747891563E+00
 cg2d: Sum(rhs),rhsMax =  -9.66539346336504E-08  8.96886998187158E+00
 cg2d: Sum(rhs),rhsMax =  -9.66078843589457E-08  8.97318115409823E+00
 cg2d: Sum(rhs),rhsMax =  -9.65621254067628E-08  8.97745726495199E+00
 cg2d: Sum(rhs),rhsMax =  -9.65159685506478E-08  8.98170502198163E+00
 cg2d: Sum(rhs),rhsMax =  -9.64709272466280E-08  8.98593151889555E+00
 cg2d: Sum(rhs),rhsMax =  -9.64258006774799E-08  8.99014423145949E+00
 cg2d: Sum(rhs),rhsMax =  -9.63806954246138E-08  8.99435085408351E+00
 cg2d: Sum(rhs),rhsMax =  -9.63354978011921E-08  8.99855914272681E+00
 cg2d: Sum(rhs),rhsMax =  -9.62904493917449E-08  9.00277662786875E+00
 cg2d: Sum(rhs),rhsMax =  -9.62449746566563E-08  9.00700998220796E+00
 cg2d: Sum(rhs),rhsMax =  -9.61997557169525E-08  9.01126574761483E+00
 cg2d: Sum(rhs),rhsMax =  -9.61540180810516E-08  9.01555039729210E+00
 cg2d: Sum(rhs),rhsMax =  -9.61077120109621E-08  9.01986971435378E+00
 cg2d: Sum(rhs),rhsMax =  -9.60613775191632E-08  9.02422880815445E+00
 cg2d: Sum(rhs),rhsMax =  -9.60143182737738E-08  9.02863205182447E+00
 cg2d: Sum(rhs),rhsMax =  -9.59668398081703E-08  9.03308295193821E+00
 cg2d: Sum(rhs),rhsMax =  -9.59189492277801E-08  9.03758400719746E+00
 cg2d: Sum(rhs),rhsMax =  -9.58706323217484E-08  9.04213663854453E+00
 cg2d: Sum(rhs),rhsMax =  -9.58215622404168E-08  9.04674109185253E+00
 cg2d: Sum(rhs),rhsMax =  -9.57721724148541E-08  9.05139640217902E+00
 cg2d: Sum(rhs),rhsMax =  -9.57223775799321E-08  9.05610040614876E+00
 cg2d: Sum(rhs),rhsMax =  -9.56718224642827E-08  9.06084979109159E+00
 cg2d: Sum(rhs),rhsMax =  -9.56211039238042E-08  9.06564017672268E+00
 cg2d: Sum(rhs),rhsMax =  -9.55700798499493E-08  9.07046622792088E+00
 cg2d: Sum(rhs),rhsMax =  -9.55189918272481E-08  9.07532179655311E+00
 cg2d: Sum(rhs),rhsMax =  -9.54672145780933E-08  9.08020008054443E+00
 cg2d: Sum(rhs),rhsMax =  -9.54156860188959E-08  9.08509379067778E+00
 cg2d: Sum(rhs),rhsMax =  -9.53640864054250E-08  9.08999532389517E+00
 cg2d: Sum(rhs),rhsMax =  -9.53120391500306E-08  9.09489685062687E+00
 cg2d: Sum(rhs),rhsMax =  -9.52604963799786E-08  9.09979078670731E+00
 cg2d: Sum(rhs),rhsMax =  -9.52091738781746E-08  9.10466952325132E+00
 cg2d: Sum(rhs),rhsMax =  -9.51581995423112E-08  9.10952586151125E+00
 cg2d: Sum(rhs),rhsMax =  -9.51075378452515E-08  9.11435305322486E+00
 cg2d: Sum(rhs),rhsMax =  -9.50568974644739E-08  9.11914489544444E+00
 cg2d: Sum(rhs),rhsMax =  -9.50070173644235E-08  9.12389583482653E+00
 cg2d: Sum(rhs),rhsMax =  -9.49582670273230E-08  9.12860106773695E+00
 cg2d: Sum(rhs),rhsMax =  -9.49094669522310E-08  9.13325671324743E+00
 cg2d: Sum(rhs),rhsMax =  -9.48612637330370E-08  9.13785989332165E+00
 cg2d: Sum(rhs),rhsMax =  -9.48139060596986E-08  9.14240888612431E+00
 cg2d: Sum(rhs),rhsMax =  -9.47671381368309E-08  9.14690322805975E+00
 cg2d: Sum(rhs),rhsMax =  -9.47210025969980E-08  9.15134376400067E+00
 cg2d: Sum(rhs),rhsMax =  -9.46753857533622E-08  9.15573262291172E+00
 cg2d: Sum(rhs),rhsMax =  -9.46305078741716E-08  9.16007311317651E+00
 cg2d: Sum(rhs),rhsMax =  -9.45855020972886E-08  9.16436954661381E+00
 EXTERNAL_FIELDS_LOAD, it=   3600090 : Reading new data, i0,i1=    2    3 (prev=    1    2 )
 DIC_FIELDS_LOAD, it=   3600090 : Reading new data, i0,i1=    2    3 (prev=    1    2 )
 cg2d: Sum(rhs),rhsMax =  -9.45416047670733E-08  9.16862700792054E+00
 cg2d: Sum(rhs),rhsMax =  -9.44977784911316E-08  9.17286965792043E+00
 cg2d: Sum(rhs),rhsMax =  -9.44538882663437E-08  9.17711460232796E+00
 cg2d: Sum(rhs),rhsMax =  -9.44097777733077E-08  9.18137827264839E+00
 cg2d: Sum(rhs),rhsMax =  -9.43655606988614E-08  9.18567586102450E+00
 cg2d: Sum(rhs),rhsMax =  -9.43208533499273E-08  9.19002086507332E+00
 cg2d: Sum(rhs),rhsMax =  -9.42755065125311E-08  9.19442473147613E+00
 cg2d: Sum(rhs),rhsMax =  -9.42294988703907E-08  9.19889660310093E+00
 cg2d: Sum(rhs),rhsMax =  -9.41831217460276E-08  9.20344317156002E+00
 cg2d: Sum(rhs),rhsMax =  -9.41357711781166E-08  9.20806863385625E+00
 cg2d: Sum(rhs),rhsMax =  -9.40875679589226E-08  9.21277472508850E+00
 cg2d: Sum(rhs),rhsMax =  -9.40387323566938E-08  9.21756082935263E+00
 cg2d: Sum(rhs),rhsMax =  -9.39891506845925E-08  9.22242415169496E+00
 cg2d: Sum(rhs),rhsMax =  -9.39387589937724E-08  9.22735992735964E+00
 cg2d: Sum(rhs),rhsMax =  -9.38874578082505E-08  9.23236166048178E+00
 cg2d: Sum(rhs),rhsMax =  -9.38360713576003E-08  9.23742136926884E+00
 cg2d: Sum(rhs),rhsMax =  -9.37847204340869E-08  9.24252982829311E+00
 cg2d: Sum(rhs),rhsMax =  -9.37326518624104E-08  9.24767682825910E+00
 cg2d: Sum(rhs),rhsMax =  -9.36799651185538E-08  9.25285135651627E+00
 cg2d: Sum(rhs),rhsMax =  -9.36278468088858E-08  9.25804181556396E+00
 cg2d: Sum(rhs),rhsMax =  -9.35753803332773E-08  9.26323624437734E+00
 cg2d: Sum(rhs),rhsMax =  -9.35233543941649E-08  9.26842252954541E+00
 cg2d: Sum(rhs),rhsMax =  -9.34712076627875E-08  9.27358855590945E+00
 cg2d: Sum(rhs),rhsMax =  -9.34198851609835E-08  9.27872221865362E+00
 cg2d: Sum(rhs),rhsMax =  -9.33687331894362E-08  9.28381269175841E+00
 cg2d: Sum(rhs),rhsMax =  -9.33183130769066E-08  9.28884990364347E+00
 cg2d: Sum(rhs),rhsMax =  -9.32684542931383E-08  9.29382460831193E+00
 cg2d: Sum(rhs),rhsMax =  -9.32194410552256E-08  9.29872876125425E+00
 cg2d: Sum(rhs),rhsMax =  -9.31711383600486E-08  9.30355578941157E+00
 cg2d: Sum(rhs),rhsMax =  -9.31240364820951E-08  9.30830071441787E+00
 cg2d: Sum(rhs),rhsMax =  -9.30773893514925E-08  9.31296016039586E+00
 cg2d: Sum(rhs),rhsMax =  -9.30318719838397E-08  9.31753230345820E+00
 cg2d: Sum(rhs),rhsMax =  -9.29872783217434E-08  9.32201677457960E+00
 cg2d: Sum(rhs),rhsMax =  -9.29437931063148E-08  9.32641453687162E+00
 cg2d: Sum(rhs),rhsMax =  -9.29007910599466E-08  9.33072777407330E+00
 cg2d: Sum(rhs),rhsMax =  -9.28590253579387E-08  9.33495977832897E+00
 cg2d: Sum(rhs),rhsMax =  -9.28177001924269E-08  9.33911483571782E+00
 cg2d: Sum(rhs),rhsMax =  -9.27770358316593E-08  9.34319809772528E+00
 cg2d: Sum(rhs),rhsMax =  -9.27373591252945E-08  9.34721542637213E+00
 cg2d: Sum(rhs),rhsMax =  -9.26982295368362E-08  9.35117321728378E+00
 cg2d: Sum(rhs),rhsMax =  -9.26594978523099E-08  9.35507820898651E+00
 cg2d: Sum(rhs),rhsMax =  -9.26212777585533E-08  9.35893728101038E+00
 cg2d: Sum(rhs),rhsMax =  -9.25836900478316E-08  9.36275724876052E+00
 cg2d: Sum(rhs),rhsMax =  -9.25467347201447E-08  9.36654466497940E+00
 cg2d: Sum(rhs),rhsMax =  -9.25093388559617E-08  9.37030563739009E+00
 cg2d: Sum(rhs),rhsMax =  -9.24723693174201E-08  9.37404566529748E+00
 cg2d: Sum(rhs),rhsMax =  -9.24358261045199E-08  9.37776950669782E+00
 cg2d: Sum(rhs),rhsMax =  -9.23998015878169E-08  9.38148107939576E+00
 cg2d: Sum(rhs),rhsMax =  -9.23633649563271E-08  9.38518340080342E+00
 cg2d: Sum(rhs),rhsMax =  -9.23271628039402E-08  9.38887856431341E+00
 cg2d: Sum(rhs),rhsMax =  -9.22907545941598E-08  9.39256775253961E+00
 cg2d: Sum(rhs),rhsMax =  -9.22549361348501E-08  9.39625127829926E+00
 cg2d: Sum(rhs),rhsMax =  -9.22186487173349E-08  9.39992865313115E+00
 cg2d: Sum(rhs),rhsMax =  -9.21831713185384E-08  9.40359867110262E+00
 cg2d: Sum(rhs),rhsMax =  -9.21473457538013E-08  9.40725949891390E+00
 cg2d: Sum(rhs),rhsMax =  -9.21119038821416E-08  9.41090875978471E+00
 cg2d: Sum(rhs),rhsMax =  -9.20763412182168E-08  9.41454361858659E+00
 cg2d: Sum(rhs),rhsMax =  -9.20410343496769E-08  9.41816086827301E+00
 cg2d: Sum(rhs),rhsMax =  -9.20060685416502E-08  9.42175701532902E+00
 cg2d: Sum(rhs),rhsMax =  -9.19711879987517E-08  9.42532836100955E+00
 EXTERNAL_FIELDS_LOAD, it=   3600150 : Reading new data, i0,i1=    3    4 (prev=    2    3 )
 DIC_FIELDS_LOAD, it=   3600150 : Reading new data, i0,i1=    3    4 (prev=    2    3 )
 cg2d: Sum(rhs),rhsMax =  -9.19367622032041E-08  9.42887108055882E+00
 cg2d: Sum(rhs),rhsMax =  -9.19030327395376E-08  9.43235832256638E+00
 cg2d: Sum(rhs),rhsMax =  -9.18696727580937E-08  9.43577294710938E+00
 cg2d: Sum(rhs),rhsMax =  -9.18375349101552E-08  9.43909901719340E+00
 cg2d: Sum(rhs),rhsMax =  -9.18056457521743E-08  9.44232226351574E+00
 cg2d: Sum(rhs),rhsMax =  -9.17754618967592E-08  9.44543045713848E+00
 cg2d: Sum(rhs),rhsMax =  -9.17468696570722E-08  9.44841368652191E+00
 cg2d: Sum(rhs),rhsMax =  -9.17188671678559E-08  9.45126453300903E+00
 cg2d: Sum(rhs),rhsMax =  -9.16929749905648E-08  9.45397814472091E+00
 cg2d: Sum(rhs),rhsMax =  -9.16680278351123E-08  9.45655223330268E+00
 cg2d: Sum(rhs),rhsMax =  -9.16445941356869E-08  9.45898700078271E+00
 cg2d: Sum(rhs),rhsMax =  -9.16223754643397E-08  9.46128500172268E+00
 cg2d: Sum(rhs),rhsMax =  -9.16011231311131E-08  9.46345095767279E+00
 cg2d: Sum(rhs),rhsMax =  -9.15811568802383E-08  9.46549153513779E+00
 cg2d: Sum(rhs),rhsMax =  -9.15625619768434E-08  9.46741508859273E+00
 cg2d: Sum(rhs),rhsMax =  -9.15451252581079E-08  9.46923137659912E+00
 cg2d: Sum(rhs),rhsMax =  -9.15285980340741E-08  9.47095124324780E+00
 cg2d: Sum(rhs),rhsMax =  -9.15126108225195E-08  9.47258633929544E+00
 cg2d: Sum(rhs),rhsMax =  -9.14974762622478E-08  9.47414881667898E+00
 cg2d: Sum(rhs),rhsMax =  -9.14831588261222E-08  9.47565102854520E+00
 cg2d: Sum(rhs),rhsMax =  -9.14691185016636E-08  9.47710524161440E+00
 cg2d: Sum(rhs),rhsMax =  -9.14552913400257E-08  9.47852337330871E+00
 cg2d: Sum(rhs),rhsMax =  -9.14417910280463E-08  9.47991675839448E+00
 cg2d: Sum(rhs),rhsMax =  -9.14288023068366E-08  9.48129594936036E+00
 cg2d: Sum(rhs),rhsMax =  -9.14153162057119E-08  9.48267055268677E+00
 cg2d: Sum(rhs),rhsMax =  -9.14016951014673E-08  9.48404910672501E+00
 cg2d: Sum(rhs),rhsMax =  -9.13883866360266E-08  9.48543898881096E+00
 cg2d: Sum(rhs),rhsMax =  -9.13749147457565E-08  9.48684634838855E+00
 cg2d: Sum(rhs),rhsMax =  -9.13611231112554E-08  9.48827608016959E+00
 cg2d: Sum(rhs),rhsMax =  -9.13465854068818E-08  9.48973182637241E+00
 cg2d: Sum(rhs),rhsMax =  -9.13324456064402E-08  9.49121598932757E+00
 cg2d: Sum(rhs),rhsMax =  -9.13176805283911E-08  9.49272976482376E+00
 cg2d: Sum(rhs),rhsMax =  -9.13029793991882E-08  9.49427318407705E+00
 cg2d: Sum(rhs),rhsMax =  -9.12876600978052E-08  9.49584517202971E+00
 cg2d: Sum(rhs),rhsMax =  -9.12722768475760E-08  9.49744362566448E+00
 cg2d: Sum(rhs),rhsMax =  -9.12563962174318E-08  9.49906550905340E+00
 cg2d: Sum(rhs),rhsMax =  -9.12406292741252E-08  9.50070696299551E+00
 cg2d: Sum(rhs),rhsMax =  -9.12245567974423E-08  9.50236342680402E+00
 cg2d: Sum(rhs),rhsMax =  -9.12086122184519E-08  9.50402976802920E+00
 cg2d: Sum(rhs),rhsMax =  -9.11920636781360E-08  9.50570042893596E+00
 cg2d: Sum(rhs),rhsMax =  -9.11760835720088E-08  9.50736956748404E+00
 cg2d: Sum(rhs),rhsMax =  -9.11599897790438E-08  9.50903122489705E+00
 cg2d: Sum(rhs),rhsMax =  -9.11439812512072E-08  9.51067944299842E+00
 cg2d: Sum(rhs),rhsMax =  -9.11286619498242E-08  9.51230836255520E+00
 cg2d: Sum(rhs),rhsMax =  -9.11128452685261E-08  9.51391232343393E+00
 cg2d: Sum(rhs),rhsMax =  -9.10978172896648E-08  9.51548598638282E+00
 cg2d: Sum(rhs),rhsMax =  -9.10825903588375E-08  9.51702443978652E+00
 cg2d: Sum(rhs),rhsMax =  -9.10679744947629E-08  9.51852327194360E+00
 cg2d: Sum(rhs),rhsMax =  -9.10538062726118E-08  9.51997861079381E+00
 cg2d: Sum(rhs),rhsMax =  -9.10403272769145E-08  9.52138713289450E+00
 cg2d: Sum(rhs),rhsMax =  -9.10271680254482E-08  9.52274605554116E+00
 cg2d: Sum(rhs),rhsMax =  -9.10143498344951E-08  9.52405313717331E+00
 cg2d: Sum(rhs),rhsMax =  -9.10022919242692E-08  9.52530666028232E+00
 cg2d: Sum(rhs),rhsMax =  -9.09905324419924E-08  9.52650541109617E+00
 cg2d: Sum(rhs),rhsMax =  -9.09794692915966E-08  9.52764864727963E+00
 cg2d: Sum(rhs),rhsMax =  -9.09689816808168E-08  9.52873605079492E+00
 cg2d: Sum(rhs),rhsMax =  -9.09588422359775E-08  9.52976767849440E+00
 cg2d: Sum(rhs),rhsMax =  -9.09493280687457E-08  9.53074391639987E+00
 cg2d: Sum(rhs),rhsMax =  -9.09404391791213E-08  9.53166530103624E+00
 cg2d: Sum(rhs),rhsMax =  -9.09316284491979E-08  9.53253252588939E+00
 EXTERNAL_FIELDS_LOAD, it=   3600210 : Reading new data, i0,i1=    4    5 (prev=    3    4 )
 DIC_FIELDS_LOAD, it=   3600210 : Reading new data, i0,i1=    4    5 (prev=    3    4 )
 cg2d: Sum(rhs),rhsMax =  -9.09236845814121E-08  9.53334634295211E+00
 cg2d: Sum(rhs),rhsMax =  -9.09162238826866E-08  9.53412016630968E+00
 cg2d: Sum(rhs),rhsMax =  -9.09088555545168E-08  9.53486144691540E+00
 cg2d: Sum(rhs),rhsMax =  -9.09020556605356E-08  9.53557668814411E+00
 cg2d: Sum(rhs),rhsMax =  -9.08950781308704E-08  9.53626990934916E+00
 cg2d: Sum(rhs),rhsMax =  -9.08885269268467E-08  9.53694479201801E+00
 cg2d: Sum(rhs),rhsMax =  -9.08819686173956E-08  9.53760402798875E+00
 cg2d: Sum(rhs),rhsMax =  -9.08758792661502E-08  9.53824943192211E+00
 cg2d: Sum(rhs),rhsMax =  -9.08692001644340E-08  9.53888215688552E+00
 cg2d: Sum(rhs),rhsMax =  -9.08633310814366E-08  9.53950304357000E+00
 cg2d: Sum(rhs),rhsMax =  -9.08575117364308E-08  9.54011304176576E+00
 cg2d: Sum(rhs),rhsMax =  -9.08516142317239E-08  9.54071301635899E+00
 cg2d: Sum(rhs),rhsMax =  -9.08458943627011E-08  9.54130322912294E+00
 cg2d: Sum(rhs),rhsMax =  -9.08400252797037E-08  9.54188272003942E+00
 cg2d: Sum(rhs),rhsMax =  -9.08349306882883E-08  9.54244934290944E+00
 cg2d: Sum(rhs),rhsMax =  -9.08295305634965E-08  9.54299999628384E+00
 cg2d: Sum(rhs),rhsMax =  -9.08241872821236E-08  9.54353092308816E+00
 cg2d: Sum(rhs),rhsMax =  -9.08189861092978E-08  9.54403796863502E+00
 cg2d: Sum(rhs),rhsMax =  -9.08142894218145E-08  9.54451678452915E+00
 cg2d: Sum(rhs),rhsMax =  -9.08097916862971E-08  9.54496303374895E+00
 cg2d: Sum(rhs),rhsMax =  -9.08056705384297E-08  9.54537256688658E+00
 cg2d: Sum(rhs),rhsMax =  -9.08016417611179E-08  9.54574155534994E+00
 cg2d: Sum(rhs),rhsMax =  -9.07979256226099E-08  9.54606657177462E+00
 cg2d: Sum(rhs),rhsMax =  -9.07952681927782E-08  9.54634467959792E+00
 cg2d: Sum(rhs),rhsMax =  -9.07924189164078E-08  9.54657345840157E+00
 cg2d: Sum(rhs),rhsMax =  -9.07902162339269E-08  9.54675102924543E+00
 cg2d: Sum(rhs),rhsMax =  -9.07886743561903E-08  9.54687605379506E+00
 cg2d: Sum(rhs),rhsMax =  -9.07877648614885E-08  9.54694771403842E+00
 cg2d: Sum(rhs),rhsMax =  -9.07869193156330E-08  9.54696566951997E+00
 cg2d: Sum(rhs),rhsMax =  -9.07865995714019E-08  9.54692999068711E+00
 cg2d: Sum(rhs),rhsMax =  -9.07872106381546E-08  9.54684108541375E+00
 cg2d: Sum(rhs),rhsMax =  -9.07884682987969E-08  9.54669963264824E+00
 cg2d: Sum(rhs),rhsMax =  -9.07898467517043E-08  9.54650651972953E+00
 cg2d: Sum(rhs),rhsMax =  -9.07915449488428E-08  9.54626274758502E+00
 cg2d: Sum(rhs),rhsMax =  -9.07941455352557E-08  9.54596935750525E+00
 cg2d: Sum(rhs),rhsMax =  -9.07970800767544E-08  9.54562738075971E+00
 cg2d: Sum(rhs),rhsMax =  -9.08000501453898E-08  9.54523778248193E+00
 cg2d: Sum(rhs),rhsMax =  -9.08038089164620E-08  9.54480140259877E+00
 cg2d: Sum(rhs),rhsMax =  -9.08078732209106E-08  9.54431888382345E+00
 cg2d: Sum(rhs),rhsMax =  -9.08128896526250E-08  9.54379063440704E+00
 cg2d: Sum(rhs),rhsMax =  -9.08179274006216E-08  9.54321682610369E+00
 cg2d: Sum(rhs),rhsMax =  -9.08231072571652E-08  9.54259741627488E+00
 cg2d: Sum(rhs),rhsMax =  -9.08294239820862E-08  9.54193218180504E+00
 cg2d: Sum(rhs),rhsMax =  -9.08357407070071E-08  9.54122075566689E+00
 cg2d: Sum(rhs),rhsMax =  -9.08426116552619E-08  9.54046266149910E+00
 cg2d: Sum(rhs),rhsMax =  -9.08497668206110E-08  9.53965734943055E+00
 cg2d: Sum(rhs),rhsMax =  -9.08576467395505E-08  9.53880424419014E+00
 cg2d: Sum(rhs),rhsMax =  -9.08659032461401E-08  9.53790282192021E+00
 cg2d: Sum(rhs),rhsMax =  -9.08746713434994E-08  9.53695268180845E+00
 cg2d: Sum(rhs),rhsMax =  -9.08840078750472E-08  9.53595362230667E+00
 cg2d: Sum(rhs),rhsMax =  -9.08936215182621E-08  9.53490571447803E+00
 cg2d: Sum(rhs),rhsMax =  -9.09042654484438E-08  9.53380930168364E+00
 cg2d: Sum(rhs),rhsMax =  -9.09145470018302E-08  9.53266493640869E+00
 cg2d: Sum(rhs),rhsMax =  -9.09259227910297E-08  9.53147332889492E+00
 cg2d: Sum(rhs),rhsMax =  -9.09384141323244E-08  9.53023537646442E+00
 cg2d: Sum(rhs),rhsMax =  -9.09505217805417E-08  9.52895220993865E+00
 cg2d: Sum(rhs),rhsMax =  -9.09629278567081E-08  9.52762520262973E+00
 cg2d: Sum(rhs),rhsMax =  -9.09757815747980E-08  9.52625594300855E+00
 cg2d: Sum(rhs),rhsMax =  -9.09892747813501E-08  9.52484621149773E+00
 cg2d: Sum(rhs),rhsMax =  -9.10029882561503E-08  9.52339794221070E+00
 EXTERNAL_FIELDS_LOAD, it=   3600270 : Reading new data, i0,i1=    5    6 (prev=    4    5 )
 DIC_FIELDS_LOAD, it=   3600270 : Reading new data, i0,i1=    5    6 (prev=    4    5 )
 cg2d: Sum(rhs),rhsMax =  -9.10169930534721E-08  9.52191318167782E+00
 cg2d: Sum(rhs),rhsMax =  -9.10311257484864E-08  9.52041761022813E+00
 cg2d: Sum(rhs),rhsMax =  -9.10455213443129E-08  9.51892843351038E+00
 cg2d: Sum(rhs),rhsMax =  -9.10593485059508E-08  9.51746258399289E+00
 cg2d: Sum(rhs),rhsMax =  -9.10729625047679E-08  9.51603636817957E+00
 cg2d: Sum(rhs),rhsMax =  -9.10860507019606E-08  9.51466517931999E+00
 cg2d: Sum(rhs),rhsMax =  -9.10986344138109E-08  9.51336322967766E+00
 cg2d: Sum(rhs),rhsMax =  -9.11102233658312E-08  9.51214329321166E+00
 cg2d: Sum(rhs),rhsMax =  -9.11212367782355E-08  9.51101645114812E+00
 cg2d: Sum(rhs),rhsMax =  -9.11308219997409E-08  9.50999185515969E+00
 cg2d: Sum(rhs),rhsMax =  -9.11397606273567E-08  9.50907652378690E+00
 cg2d: Sum(rhs),rhsMax =  -9.11473847509114E-08  9.50827517814543E+00
 cg2d: Sum(rhs),rhsMax =  -9.11540354309182E-08  9.50759014752173E+00
 cg2d: Sum(rhs),rhsMax =  -9.11595421371203E-08  9.50702134377118E+00
 cg2d: Sum(rhs),rhsMax =  -9.11640682943471E-08  9.50656629011210E+00
 cg2d: Sum(rhs),rhsMax =  -9.11673012637948E-08  9.50622019182364E+00
 cg2d: Sum(rhs),rhsMax =  -9.11696744765322E-08  9.50597606771963E+00
 cg2d: Sum(rhs),rhsMax =  -9.11708539774736E-08  9.50582494250500E+00
 cg2d: Sum(rhs),rhsMax =  -9.11716497853376E-08  9.50575608648473E+00
 cg2d: Sum(rhs),rhsMax =  -9.11714224116622E-08  9.50575729587021E+00
 cg2d: Sum(rhs),rhsMax =  -9.11708468720462E-08  9.50581523373235E+00
 cg2d: Sum(rhs),rhsMax =  -9.11699018502077E-08  9.50591575069248E+00
 cg2d: Sum(rhs),rhsMax =  -9.11685589244371E-08  9.50604420974297E+00
 cg2d: Sum(rhs),rhsMax =  -9.11669744141363E-08  9.50618583284504E+00
 cg2d: Sum(rhs),rhsMax =  -9.11656883317846E-08  9.50632606101357E+00
 cg2d: Sum(rhs),rhsMax =  -9.11643525114414E-08  9.50645090757042E+00
 cg2d: Sum(rhs),rhsMax =  -9.11635567035773E-08  9.50654729113363E+00
 cg2d: Sum(rhs),rhsMax =  -9.11632938027651E-08  9.50660334354173E+00
 cg2d: Sum(rhs),rhsMax =  -9.11633009081925E-08  9.50660868062301E+00
 cg2d: Sum(rhs),rhsMax =  -9.11639332912273E-08  9.50655462562515E+00
 cg2d: Sum(rhs),rhsMax =  -9.11649706836215E-08  9.50643436311089E+00
 cg2d: Sum(rhs),rhsMax =  -9.11672302095212E-08  9.50624304674150E+00
 cg2d: Sum(rhs),rhsMax =  -9.11696460548228E-08  9.50597781905916E+00
 cg2d: Sum(rhs),rhsMax =  -9.11727440211507E-08  9.50563777710892E+00
 cg2d: Sum(rhs),rhsMax =  -9.11770854372662E-08  9.50522393135291E+00
 cg2d: Sum(rhs),rhsMax =  -9.11816186999204E-08  9.50473911463816E+00
 cg2d: Sum(rhs),rhsMax =  -9.11870614572763E-08  9.50418773930678E+00
 cg2d: Sum(rhs),rhsMax =  -9.11928168534359E-08  9.50357558691374E+00
 cg2d: Sum(rhs),rhsMax =  -9.11992827923314E-08  9.50290964447458E+00
 cg2d: Sum(rhs),rhsMax =  -9.12065729608003E-08  9.50219791542795E+00
 cg2d: Sum(rhs),rhsMax =  -9.12139270781154E-08  9.50144918276843E+00
 cg2d: Sum(rhs),rhsMax =  -9.12212811954305E-08  9.50067274580360E+00
 cg2d: Sum(rhs),rhsMax =  -9.12293955934729E-08  9.49987815929010E+00
 cg2d: Sum(rhs),rhsMax =  -9.12369131356172E-08  9.49907498366882E+00
 cg2d: Sum(rhs),rhsMax =  -9.12447788437021E-08  9.49827255755378E+00
 cg2d: Sum(rhs),rhsMax =  -9.12528008711888E-08  9.49747978836020E+00
 cg2d: Sum(rhs),rhsMax =  -9.12602686753416E-08  9.49670496341604E+00
 cg2d: Sum(rhs),rhsMax =  -9.12679780640246E-08  9.49595558374171E+00
 cg2d: Sum(rhs),rhsMax =  -9.12747850634332E-08  9.49523821505845E+00
 cg2d: Sum(rhs),rhsMax =  -9.12811941589098E-08  9.49455836839740E+00
 cg2d: Sum(rhs),rhsMax =  -9.12878306280618E-08  9.49392042323925E+00
 cg2d: Sum(rhs),rhsMax =  -9.12937139219139E-08  9.49332754785973E+00
 cg2d: Sum(rhs),rhsMax =  -9.12992632606802E-08  9.49278165465699E+00
 cg2d: Sum(rhs),rhsMax =  -9.13035833605136E-08  9.49228339433203E+00
 cg2d: Sum(rhs),rhsMax =  -9.13086424247922E-08  9.49183218209292E+00
 cg2d: Sum(rhs),rhsMax =  -9.13127422563775E-08  9.49142625728328E+00
 cg2d: Sum(rhs),rhsMax =  -9.13163518134752E-08  9.49106276286301E+00
 cg2d: Sum(rhs),rhsMax =  -9.13194782015125E-08  9.49073783789306E+00
 cg2d: Sum(rhs),rhsMax =  -9.13225406407037E-08  9.49044672400271E+00
 cg2d: Sum(rhs),rhsMax =  -9.13253046519458E-08  9.49018390323782E+00
 EXTERNAL_FIELDS_LOAD, it=   3600330 : Reading new data, i0,i1=    6    7 (prev=    5    6 )
 DIC_FIELDS_LOAD, it=   3600330 : Reading new data, i0,i1=    6    7 (prev=    5    6 )
 cg2d: Sum(rhs),rhsMax =  -9.13276210212643E-08  9.48994325700856E+00
 cg2d: Sum(rhs),rhsMax =  -9.13303352945150E-08  9.48970801758053E+00
 cg2d: Sum(rhs),rhsMax =  -9.13328221940901E-08  9.48946471682098E+00
 cg2d: Sum(rhs),rhsMax =  -9.13353943587936E-08  9.48919980375378E+00
 cg2d: Sum(rhs),rhsMax =  -9.13383644274290E-08  9.48889996251626E+00
 cg2d: Sum(rhs),rhsMax =  -9.13418460868343E-08  9.48855235316500E+00
 cg2d: Sum(rhs),rhsMax =  -9.13461093432488E-08  9.48814487205053E+00
 cg2d: Sum(rhs),rhsMax =  -9.13508344524416E-08  9.48766639266868E+00
 cg2d: Sum(rhs),rhsMax =  -9.13563624749258E-08  9.48710698236420E+00
 cg2d: Sum(rhs),rhsMax =  -9.13624518261713E-08  9.48645808347463E+00
 cg2d: Sum(rhs),rhsMax =  -9.13698130489138E-08  9.48571268422533E+00
 cg2d: Sum(rhs),rhsMax =  -9.13783111400335E-08  9.48486545850383E+00
 cg2d: Sum(rhs),rhsMax =  -9.13876760932908E-08  9.48391285858374E+00
 cg2d: Sum(rhs),rhsMax =  -9.13977800109933E-08  9.48285315351105E+00
 cg2d: Sum(rhs),rhsMax =  -9.14093334358768E-08  9.48168641391458E+00
 cg2d: Sum(rhs),rhsMax =  -9.14215760872139E-08  9.48041445516485E+00
 cg2d: Sum(rhs),rhsMax =  -9.14348703418000E-08  9.47904073781749E+00
 cg2d: Sum(rhs),rhsMax =  -9.14490314585237E-08  9.47757022510765E+00
 cg2d: Sum(rhs),rhsMax =  -9.14641802296501E-08  9.47600920384239E+00
 cg2d: Sum(rhs),rhsMax =  -9.14802384954783E-08  9.47436507523804E+00
 cg2d: Sum(rhs),rhsMax =  -9.14970428311790E-08  9.47264612546539E+00
 cg2d: Sum(rhs),rhsMax =  -9.15143658630768E-08  9.47086128598380E+00
 cg2d: Sum(rhs),rhsMax =  -9.15317244221114E-08  9.46901988541289E+00
 cg2d: Sum(rhs),rhsMax =  -9.15503548526431E-08  9.46713139755286E+00
 cg2d: Sum(rhs),rhsMax =  -9.15688005420634E-08  9.46520519129246E+00
 cg2d: Sum(rhs),rhsMax =  -9.15879354579374E-08  9.46325027783096E+00
 cg2d: Sum(rhs),rhsMax =  -9.16070561629567E-08  9.46127510172983E+00
 cg2d: Sum(rhs),rhsMax =  -9.16269016215665E-08  9.45928736176468E+00
 cg2d: Sum(rhs),rhsMax =  -9.16458375854745E-08  9.45729384446051E+00
 cg2d: Sum(rhs),rhsMax =  -9.16652354021608E-08  9.45530032221759E+00
 cg2d: Sum(rhs),rhsMax =  -9.16847469056847E-08  9.45331147339530E+00
 cg2d: Sum(rhs),rhsMax =  -9.17041660386531E-08  9.45133082537812E+00
 cg2d: Sum(rhs),rhsMax =  -9.17234714847837E-08  9.44936073119909E+00
 cg2d: Sum(rhs),rhsMax =  -9.17423008672813E-08  9.44740238220463E+00
 cg2d: Sum(rhs),rhsMax =  -9.17614002560185E-08  9.44545585645758E+00
 cg2d: Sum(rhs),rhsMax =  -9.17801870059520E-08  9.44352020252140E+00
 cg2d: Sum(rhs),rhsMax =  -9.17989737558855E-08  9.44159355733174E+00
 cg2d: Sum(rhs),rhsMax =  -9.18179097197935E-08  9.43967327626014E+00
 cg2d: Sum(rhs),rhsMax =  -9.18367177860091E-08  9.43775607395104E+00
 cg2d: Sum(rhs),rhsMax =  -9.18552629514124E-08  9.43583817490269E+00
 cg2d: Sum(rhs),rhsMax =  -9.18742912858761E-08  9.43391546318717E+00
 cg2d: Sum(rhs),rhsMax =  -9.18933977800407E-08  9.43198362529795E+00
 cg2d: Sum(rhs),rhsMax =  -9.19123053222393E-08  9.43003828806143E+00
 cg2d: Sum(rhs),rhsMax =  -9.19319091963189E-08  9.42807514245689E+00
 cg2d: Sum(rhs),rhsMax =  -9.19516196518089E-08  9.42609005034801E+00
 cg2d: Sum(rhs),rhsMax =  -9.19711453661876E-08  9.42407914155286E+00
 cg2d: Sum(rhs),rhsMax =  -9.19916374186869E-08  9.42203890101561E+00
 cg2d: Sum(rhs),rhsMax =  -9.20122005254598E-08  9.41996625280574E+00
 cg2d: Sum(rhs),rhsMax =  -9.20328773190704E-08  9.41785862954787E+00
 cg2d: Sum(rhs),rhsMax =  -9.20541722848611E-08  9.41571402403211E+00
 cg2d: Sum(rhs),rhsMax =  -9.20761920042423E-08  9.41353104362712E+00
 cg2d: Sum(rhs),rhsMax =  -9.20975224971698E-08  9.41130897700722E+00
 cg2d: Sum(rhs),rhsMax =  -9.21202243375774E-08  9.40904782014454E+00
 cg2d: Sum(rhs),rhsMax =  -9.21427556477283E-08  9.40674826682519E+00
 cg2d: Sum(rhs),rhsMax =  -9.21658624974953E-08  9.40441167656376E+00
 cg2d: Sum(rhs),rhsMax =  -9.21897651551262E-08  9.40204003109270E+00
 cg2d: Sum(rhs),rhsMax =  -9.22136393910478E-08  9.39963588692061E+00
 cg2d: Sum(rhs),rhsMax =  -9.22377765277815E-08  9.39720232327049E+00
 cg2d: Sum(rhs),rhsMax =  -9.22617147125493E-08  9.39474287623570E+00
 cg2d: Sum(rhs),rhsMax =  -9.22866476571471E-08  9.39226147078604E+00
 EXTERNAL_FIELDS_LOAD, it=   3600390 : Reading new data, i0,i1=    7    8 (prev=    6    7 )
 DIC_FIELDS_LOAD, it=   3600390 : Reading new data, i0,i1=    7    8 (prev=    6    7 )
 cg2d: Sum(rhs),rhsMax =  -9.23120353490958E-08  9.38976233427929E+00
 cg2d: Sum(rhs),rhsMax =  -9.23369185557021E-08  9.38724381347799E+00
 cg2d: Sum(rhs),rhsMax =  -9.23620930848301E-08  9.38470550458213E+00
 cg2d: Sum(rhs),rhsMax =  -9.23878431535741E-08  9.38214640732935E+00
 cg2d: Sum(rhs),rhsMax =  -9.24133303215058E-08  9.37956498127073E+00
 cg2d: Sum(rhs),rhsMax =  -9.24395564538827E-08  9.37695924403383E+00
 cg2d: Sum(rhs),rhsMax =  -9.24659673273709E-08  9.37432689628576E+00
 cg2d: Sum(rhs),rhsMax =  -9.24926268908166E-08  9.37166545130188E+00
 cg2d: Sum(rhs),rhsMax =  -9.25199330481519E-08  9.36897236493602E+00
 cg2d: Sum(rhs),rhsMax =  -9.25472107837777E-08  9.36624514198210E+00
 cg2d: Sum(rhs),rhsMax =  -9.25749148450450E-08  9.36348144222541E+00
 cg2d: Sum(rhs),rhsMax =  -9.26027894365689E-08  9.36067916467522E+00
 cg2d: Sum(rhs),rhsMax =  -9.26316801042049E-08  9.35783651518778E+00
 cg2d: Sum(rhs),rhsMax =  -9.26604357687211E-08  9.35495205473915E+00
 cg2d: Sum(rhs),rhsMax =  -9.26899872411013E-08  9.35202472862356E+00
 cg2d: Sum(rhs),rhsMax =  -9.27198087197212E-08  9.34905386050751E+00
 cg2d: Sum(rhs),rhsMax =  -9.27502270542391E-08  9.34603912446753E+00
 cg2d: Sum(rhs),rhsMax =  -9.27809580275607E-08  9.34298052032945E+00
 cg2d: Sum(rhs),rhsMax =  -9.28122148025068E-08  9.33987837125357E+00
 cg2d: Sum(rhs),rhsMax =  -9.28438836922396E-08  9.33673332003228E+00
 cg2d: Sum(rhs),rhsMax =  -9.28756591633828E-08  9.33354631509102E+00
 cg2d: Sum(rhs),rhsMax =  -9.29085999246126E-08  9.33031856217985E+00
 cg2d: Sum(rhs),rhsMax =  -9.29414056827227E-08  9.32705144157814E+00
 cg2d: Sum(rhs),rhsMax =  -9.29742824951063E-08  9.32374640924821E+00
 cg2d: Sum(rhs),rhsMax =  -9.30079835370634E-08  9.32040491207867E+00
 cg2d: Sum(rhs),rhsMax =  -9.30417982658582E-08  9.31702830536998E+00
 cg2d: Sum(rhs),rhsMax =  -9.30764798567907E-08  9.31361778906816E+00
 cg2d: Sum(rhs),rhsMax =  -9.31104011669959E-08  9.31017435680010E+00
 cg2d: Sum(rhs),rhsMax =  -9.31454593455783E-08  9.30669874783390E+00
 cg2d: Sum(rhs),rhsMax =  -9.31809367443748E-08  9.30319140183628E+00
 cg2d: Sum(rhs),rhsMax =  -9.32159238686836E-08  9.29965242032067E+00
 cg2d: Sum(rhs),rhsMax =  -9.32518702256857E-08  9.29608155387300E+00
 cg2d: Sum(rhs),rhsMax =  -9.32883352788849E-08  9.29247816276956E+00
 cg2d: Sum(rhs),rhsMax =  -9.33245232204172E-08  9.28884120452690E+00
 cg2d: Sum(rhs),rhsMax =  -9.33613577558390E-08  9.28516924951164E+00
 cg2d: Sum(rhs),rhsMax =  -9.33982562401070E-08  9.28146051649491E+00
 cg2d: Sum(rhs),rhsMax =  -9.34364479121541E-08  9.27771291851975E+00
 cg2d: Sum(rhs),rhsMax =  -9.34740143065937E-08  9.27392411497484E+00
 cg2d: Sum(rhs),rhsMax =  -9.35126251988549E-08  9.27009157616147E+00
 cg2d: Sum(rhs),rhsMax =  -9.35518329470142E-08  9.26621266064052E+00
 cg2d: Sum(rhs),rhsMax =  -9.35912964905583E-08  9.26228469753356E+00
 cg2d: Sum(rhs),rhsMax =  -9.36311082000429E-08  9.25830502540661E+00
 cg2d: Sum(rhs),rhsMax =  -9.36718080879473E-08  9.25427104022615E+00
 cg2d: Sum(rhs),rhsMax =  -9.37130835154676E-08  9.25018025806528E+00
 cg2d: Sum(rhs),rhsMax =  -9.37547639523473E-08  9.24603037476154E+00
 cg2d: Sum(rhs),rhsMax =  -9.37974888870485E-08  9.24181932462259E+00
 cg2d: Sum(rhs),rhsMax =  -9.38402919814507E-08  9.23754533703139E+00
 cg2d: Sum(rhs),rhsMax =  -9.38843172093584E-08  9.23320698439808E+00
 cg2d: Sum(rhs),rhsMax =  -9.39290814017113E-08  9.22880321317793E+00
 cg2d: Sum(rhs),rhsMax =  -9.39739734917566E-08  9.22433335164241E+00
 cg2d: Sum(rhs),rhsMax =  -9.40200521881707E-08  9.21979710173837E+00
 cg2d: Sum(rhs),rhsMax =  -9.40667135296280E-08  9.21519452384442E+00
 cg2d: Sum(rhs),rhsMax =  -9.41140712029664E-08  9.21052602027441E+00
 cg2d: Sum(rhs),rhsMax =  -9.41621181027585E-08  9.20579231856880E+00
 cg2d: Sum(rhs),rhsMax =  -9.42108115964402E-08  9.20099445172383E+00
 cg2d: Sum(rhs),rhsMax =  -9.42603506359774E-08  9.19613373409314E+00
 cg2d: Sum(rhs),rhsMax =  -9.43106570616692E-08  9.19121172891709E+00
 cg2d: Sum(rhs),rhsMax =  -9.43619582471911E-08  9.18623021276131E+00
 cg2d: Sum(rhs),rhsMax =  -9.44129254776271E-08  9.18119115032627E+00
 cg2d: Sum(rhs),rhsMax =  -9.44648874678933E-08  9.17609666859133E+00
 EXTERNAL_FIELDS_LOAD, it=   3600450 : Reading new data, i0,i1=    8    9 (prev=    7    8 )
 DIC_FIELDS_LOAD, it=   3600450 : Reading new data, i0,i1=    8    9 (prev=    7    8 )
 cg2d: Sum(rhs),rhsMax =  -9.45180929079470E-08  9.17094900539886E+00
 cg2d: Sum(rhs),rhsMax =  -9.45713196642828E-08  9.16576037761048E+00
 cg2d: Sum(rhs),rhsMax =  -9.46249869571147E-08  9.16053907873528E+00
 cg2d: Sum(rhs),rhsMax =  -9.46787679367844E-08  9.15529303788953E+00
 cg2d: Sum(rhs),rhsMax =  -9.47327123412833E-08  9.15002961005962E+00
 cg2d: Sum(rhs),rhsMax =  -9.47873814993727E-08  9.14475542293395E+00
 cg2d: Sum(rhs),rhsMax =  -9.48415888046839E-08  9.13947626776025E+00
 cg2d: Sum(rhs),rhsMax =  -9.48963148061921E-08  9.13419703804716E+00
 cg2d: Sum(rhs),rhsMax =  -9.49505718494947E-08  9.12892171232682E+00
 cg2d: Sum(rhs),rhsMax =  -9.50055820680973E-08  9.12365335338700E+00
 cg2d: Sum(rhs),rhsMax =  -9.50602441207593E-08  9.11839411243203E+00
 cg2d: Sum(rhs),rhsMax =  -9.51149274897034E-08  9.11314523538299E+00
 cg2d: Sum(rhs),rhsMax =  -9.51689713701853E-08  9.10790707134369E+00
 cg2d: Sum(rhs),rhsMax =  -9.52241663298992E-08  9.10267908920085E+00
 cg2d: Sum(rhs),rhsMax =  -9.52785583763216E-08  9.09745990818067E+00
 cg2d: Sum(rhs),rhsMax =  -9.53332346398383E-08  9.09224734512777E+00
 cg2d: Sum(rhs),rhsMax =  -9.53879322196372E-08  9.08703847736888E+00
 cg2d: Sum(rhs),rhsMax =  -9.54423811094784E-08  9.08182972075513E+00
 cg2d: Sum(rhs),rhsMax =  -9.54974623823546E-08  9.07661692347198E+00
 cg2d: Sum(rhs),rhsMax =  -9.55527141854873E-08  9.07139547821490E+00
 cg2d: Sum(rhs),rhsMax =  -9.56078878289190E-08  9.06616045270155E+00
 cg2d: Sum(rhs),rhsMax =  -9.56632462134621E-08  9.06090673305150E+00
 cg2d: Sum(rhs),rhsMax =  -9.57190593453561E-08  9.05562917574046E+00
 cg2d: Sum(rhs),rhsMax =  -9.57753982788745E-08  9.05032276301453E+00
 cg2d: Sum(rhs),rhsMax =  -9.58323127520089E-08  9.04498274779792E+00
 cg2d: Sum(rhs),rhsMax =  -9.58890566948867E-08  9.03960479010611E+00
 cg2d: Sum(rhs),rhsMax =  -9.59469090844323E-08  9.03418508103277E+00
 cg2d: Sum(rhs),rhsMax =  -9.60046975251316E-08  9.02872044807494E+00
 cg2d: Sum(rhs),rhsMax =  -9.60634949365158E-08  9.02320843719522E+00
 cg2d: Sum(rhs),rhsMax =  -9.61234505325592E-08  9.01764736350553E+00
 cg2d: Sum(rhs),rhsMax =  -9.61829158541150E-08  9.01203632711249E+00
 cg2d: Sum(rhs),rhsMax =  -9.62436175200310E-08  9.00637519234014E+00
 cg2d: Sum(rhs),rhsMax =  -9.63047241953063E-08  9.00066454100738E+00
 cg2d: Sum(rhs),rhsMax =  -9.63663566722062E-08  8.99490560644289E+00
 cg2d: Sum(rhs),rhsMax =  -9.64286215321408E-08  8.98910019830229E+00
 cg2d: Sum(rhs),rhsMax =  -9.64914832479735E-08  8.98325060608421E+00
 cg2d: Sum(rhs),rhsMax =  -9.65549631359863E-08  8.97735949860674E+00
 cg2d: Sum(rhs),rhsMax =  -9.66191180395981E-08  8.97142982445055E+00
 cg2d: Sum(rhs),rhsMax =  -9.66832942594920E-08  8.96546471599943E+00
 cg2d: Sum(rhs),rhsMax =  -9.67482520763951E-08  8.95946740124540E+00
 cg2d: Sum(rhs),rhsMax =  -9.68132098932983E-08  8.95344112713886E+00
 cg2d: Sum(rhs),rhsMax =  -9.68790274669118E-08  8.94738909112794E+00
 cg2d: Sum(rhs),rhsMax =  -9.69447810916790E-08  8.94131438207753E+00
 cg2d: Sum(rhs),rhsMax =  -9.70111884157632E-08  8.93521991327319E+00
 cg2d: Sum(rhs),rhsMax =  -9.70773115227530E-08  8.92910833888471E+00
 cg2d: Sum(rhs),rhsMax =  -9.71445075492738E-08  8.92298199747039E+00
 cg2d: Sum(rhs),rhsMax =  -9.72113554098541E-08  8.91684290726808E+00
 cg2d: Sum(rhs),rhsMax =  -9.72787574937684E-08  8.91069264633776E+00
 cg2d: Sum(rhs),rhsMax =  -9.73459535202892E-08  8.90453228797114E+00
 cg2d: Sum(rhs),rhsMax =  -9.74135971887335E-08  8.89836249714105E+00
 cg2d: Sum(rhs),rhsMax =  -9.74817027099562E-08  8.89218368115518E+00
 cg2d: Sum(rhs),rhsMax =  -9.75496519117769E-08  8.88599608996445E+00
 cg2d: Sum(rhs),rhsMax =  -9.76179350686834E-08  8.87979980032782E+00
 cg2d: Sum(rhs),rhsMax =  -9.76860476953334E-08  8.87359466021019E+00
 cg2d: Sum(rhs),rhsMax =  -9.77549490244201E-08  8.86737992136571E+00
 cg2d: Sum(rhs),rhsMax =  -9.78237792992331E-08  8.86115449881272E+00
 cg2d: Sum(rhs),rhsMax =  -9.78925882577641E-08  8.85491714939279E+00
 cg2d: Sum(rhs),rhsMax =  -9.79620651264668E-08  8.84866650814923E+00
 cg2d: Sum(rhs),rhsMax =  -9.80318830556826E-08  8.84239908862083E+00
 cg2d: Sum(rhs),rhsMax =  -9.81016583523342E-08  8.83611205511795E+00
 EXTERNAL_FIELDS_LOAD, it=   3600510 : Reading new data, i0,i1=    9   10 (prev=    8    9 )
 DIC_FIELDS_LOAD, it=   3600510 : Reading new data, i0,i1=    9   10 (prev=    8    9 )
 cg2d: Sum(rhs),rhsMax =  -9.81721868242857E-08  8.82980306034887E+00
 cg2d: Sum(rhs),rhsMax =  -9.82427721396562E-08  8.82347164349139E+00
 cg2d: Sum(rhs),rhsMax =  -9.83135990395567E-08  8.81711735596894E+00
 cg2d: Sum(rhs),rhsMax =  -9.83851720093298E-08  8.81074020360017E+00
 cg2d: Sum(rhs),rhsMax =  -9.84564962891454E-08  8.80434063629974E+00
 cg2d: Sum(rhs),rhsMax =  -9.85286376931072E-08  8.79791959804717E+00
 cg2d: Sum(rhs),rhsMax =  -9.86011414738641E-08  8.79147850051498E+00
 cg2d: Sum(rhs),rhsMax =  -9.86734960406466E-08  8.78501923806664E+00
 cg2d: Sum(rhs),rhsMax =  -9.87464900958912E-08  8.77854412431977E+00
 cg2d: Sum(rhs),rhsMax =  -9.88197470519481E-08  8.77205585109022E+00
 cg2d: Sum(rhs),rhsMax =  -9.88934729662105E-08  8.76555740298602E+00
 cg2d: Sum(rhs),rhsMax =  -9.89669146633787E-08  8.75905198910442E+00
 cg2d: Sum(rhs),rhsMax =  -9.90407258427695E-08  8.75254295465281E+00
 cg2d: Sum(rhs),rhsMax =  -9.91145014950234E-08  8.74603368964057E+00
 cg2d: Sum(rhs),rhsMax =  -9.91886466295000E-08  8.73952755244439E+00
 cg2d: Sum(rhs),rhsMax =  -9.92623157003436E-08  8.73302782624689E+00
 cg2d: Sum(rhs),rhsMax =  -9.93363400425551E-08  8.72653766294564E+00
 cg2d: Sum(rhs),rhsMax =  -9.94104141227581E-08  8.72006002219781E+00
 cg2d: Sum(rhs),rhsMax =  -9.94844668866790E-08  8.71359759621992E+00
 cg2d: Sum(rhs),rhsMax =  -9.95583775420528E-08  8.70715278372291E+00
 cg2d: Sum(rhs),rhsMax =  -9.96322597757171E-08  8.70072771032166E+00
 cg2d: Sum(rhs),rhsMax =  -9.97059714791249E-08  8.69432422374462E+00
 cg2d: Sum(rhs),rhsMax =  -9.97792923840279E-08  8.68794392220557E+00
 cg2d: Sum(rhs),rhsMax =  -9.98527127649140E-08  8.68159287495532E+00
 cg2d: Sum(rhs),rhsMax =  -9.99256144496030E-08  8.67527594836007E+00
 cg2d: Sum(rhs),rhsMax =  -9.99983740257449E-08  8.66899648662334E+00
 cg2d: Sum(rhs),rhsMax =  -1.00070764119664E-07  8.66275674813775E+00
 cg2d: Sum(rhs),rhsMax =  -1.00142791836788E-07  8.65655808426570E+00
 cg2d: Sum(rhs),rhsMax =  -1.00214123222031E-07  8.65040095427649E+00
 cg2d: Sum(rhs),rhsMax =  -1.00285419080137E-07  8.64428511771589E+00
 cg2d: Sum(rhs),rhsMax =  -1.00356203347474E-07  8.63820779072895E+00
 cg2d: Sum(rhs),rhsMax =  -1.00426881033400E-07  8.63216610266613E+00
 cg2d: Sum(rhs),rhsMax =  -1.00497182131676E-07  8.62615664857018E+00
 cg2d: Sum(rhs),rhsMax =  -1.00566929006618E-07  8.62017549344574E+00
 cg2d: Sum(rhs),rhsMax =  -1.00636839306389E-07  8.61421824973427E+00
 cg2d: Sum(rhs),rhsMax =  -1.00706515127058E-07  8.60828014305759E+00
 cg2d: Sum(rhs),rhsMax =  -1.00776318845419E-07  8.60235619466164E+00
 cg2d: Sum(rhs),rhsMax =  -1.00845916506387E-07  8.59644141396147E+00
 cg2d: Sum(rhs),rhsMax =  -1.00915485745645E-07  8.59053104903554E+00
 cg2d: Sum(rhs),rhsMax =  -1.00985261042297E-07  8.58462072248315E+00
 cg2d: Sum(rhs),rhsMax =  -1.01055491086299E-07  8.57870663714626E+00
 cg2d: Sum(rhs),rhsMax =  -1.01125422702353E-07  8.57278566865890E+00
 cg2d: Sum(rhs),rhsMax =  -1.01195716695202E-07  8.56685532083521E+00
 cg2d: Sum(rhs),rhsMax =  -1.01266216745444E-07  8.56091374139585E+00
 cg2d: Sum(rhs),rhsMax =  -1.01337192859319E-07  8.55495975914983E+00
 cg2d: Sum(rhs),rhsMax =  -1.01408346608878E-07  8.54899275863313E+00
 cg2d: Sum(rhs),rhsMax =  -1.01479535885574E-07  8.54301265247851E+00
 cg2d: Sum(rhs),rhsMax =  -1.01551435705005E-07  8.53701978569626E+00
 cg2d: Sum(rhs),rhsMax =  -1.01622724457684E-07  8.53101490472480E+00
 cg2d: Sum(rhs),rhsMax =  -1.01695292187287E-07  8.52499919193590E+00
 cg2d: Sum(rhs),rhsMax =  -1.01767554383514E-07  8.51897431341724E+00
 cg2d: Sum(rhs),rhsMax =  -1.01840242905382E-07  8.51294235247767E+00
 cg2d: Sum(rhs),rhsMax =  -1.01912846162122E-07  8.50690569200869E+00
 cg2d: Sum(rhs),rhsMax =  -1.01985413891725E-07  8.50087005576702E+00
 cg2d: Sum(rhs),rhsMax =  -1.02058450579534E-07  8.49484015017416E+00
 cg2d: Sum(rhs),rhsMax =  -1.02131188839394E-07  8.48882063673028E+00
 cg2d: Sum(rhs),rhsMax =  -1.02203856044980E-07  8.48281607441673E+00
 cg2d: Sum(rhs),rhsMax =  -1.02276672464541E-07  8.47683086082370E+00
 cg2d: Sum(rhs),rhsMax =  -1.02349595465512E-07  8.47086915096995E+00
 cg2d: Sum(rhs),rhsMax =  -1.02421360281824E-07  8.46493476809303E+00
 EXTERNAL_FIELDS_LOAD, it=   3600570 : Reading new data, i0,i1=   10   11 (prev=    9   10 )
 DIC_FIELDS_LOAD, it=   3600570 : Reading new data, i0,i1=   10   11 (prev=    9   10 )
 cg2d: Sum(rhs),rhsMax =  -1.02493515896640E-07  8.45903109783263E+00
 cg2d: Sum(rhs),rhsMax =  -1.02564975179575E-07  8.45319648993583E+00
 cg2d: Sum(rhs),rhsMax =  -1.02634501786270E-07  8.44745634270964E+00
 cg2d: Sum(rhs),rhsMax =  -1.02703893389844E-07  8.44183524325516E+00
 cg2d: Sum(rhs),rhsMax =  -1.02770819410125E-07  8.43635626330932E+00
 cg2d: Sum(rhs),rhsMax =  -1.02836231974379E-07  8.43104036727980E+00
 cg2d: Sum(rhs),rhsMax =  -1.02899214482477E-07  8.42590597581903E+00
 cg2d: Sum(rhs),rhsMax =  -1.02960150627496E-07  8.42096861540595E+00
 cg2d: Sum(rhs),rhsMax =  -1.03018727770632E-07  8.41624063283881E+00
 cg2d: Sum(rhs),rhsMax =  -1.03074462742825E-07  8.41173099284368E+00
 cg2d: Sum(rhs),rhsMax =  -1.03127582917750E-07  8.40744522364360E+00
 cg2d: Sum(rhs),rhsMax =  -1.03177704602331E-07  8.40338548638234E+00
 cg2d: Sum(rhs),rhsMax =  -1.03225289649345E-07  8.39955071057647E+00
 cg2d: Sum(rhs),rhsMax =  -1.03270444640202E-07  8.39593686353065E+00
 cg2d: Sum(rhs),rhsMax =  -1.03312800092681E-07  8.39253726007720E+00
 cg2d: Sum(rhs),rhsMax =  -1.03352554958747E-07  8.38934286490718E+00
 cg2d: Sum(rhs),rhsMax =  -1.03389886874083E-07  8.38634267692018E+00
 cg2d: Sum(rhs),rhsMax =  -1.03425186637196E-07  8.38352418466840E+00
 cg2d: Sum(rhs),rhsMax =  -1.03458575040349E-07  8.38087384792736E+00
 cg2d: Sum(rhs),rhsMax =  -1.03489654179612E-07  8.37837764295235E+00
 cg2d: Sum(rhs),rhsMax =  -1.03519347760539E-07  8.37602165023152E+00
 cg2d: Sum(rhs),rhsMax =  -1.03547364460610E-07  8.37379265495454E+00
 cg2d: Sum(rhs),rhsMax =  -1.03573896126363E-07  8.37167859305842E+00
 cg2d: Sum(rhs),rhsMax =  -1.03599155920620E-07  8.36966841617237E+00
 cg2d: Sum(rhs),rhsMax =  -1.03623357006200E-07  8.36775262363169E+00
 cg2d: Sum(rhs),rhsMax =  -1.03646584648232E-07  8.36592322530019E+00
 cg2d: Sum(rhs),rhsMax =  -1.03668426731929E-07  8.36417370361670E+00
 cg2d: Sum(rhs),rhsMax =  -1.03689806962848E-07  8.36249893566327E+00
 cg2d: Sum(rhs),rhsMax =  -1.03710164012227E-07  8.36089512198643E+00
 cg2d: Sum(rhs),rhsMax =  -1.03729064448999E-07  8.35935972193128E+00
 cg2d: Sum(rhs),rhsMax =  -1.03747986202052E-07  8.35789132052859E+00
 cg2d: Sum(rhs),rhsMax =  -1.03765373182796E-07  8.35648953984663E+00
 cg2d: Sum(rhs),rhsMax =  -1.03782369365035E-07  8.35515503666620E+00
 cg2d: Sum(rhs),rhsMax =  -1.03798733164240E-07  8.35388959337713E+00
 cg2d: Sum(rhs),rhsMax =  -1.03813491136862E-07  8.35269612989214E+00
 cg2d: Sum(rhs),rhsMax =  -1.03827638042731E-07  8.35157865319166E+00
 cg2d: Sum(rhs),rhsMax =  -1.03841280463257E-07  8.35054220321588E+00
 cg2d: Sum(rhs),rhsMax =  -1.03853331268056E-07  8.34959282244478E+00
 cg2d: Sum(rhs),rhsMax =  -1.03864024936229E-07  8.34873757212784E+00
 cg2d: Sum(rhs),rhsMax =  -1.03873794898846E-07  8.34798443944571E+00
 cg2d: Sum(rhs),rhsMax =  -1.03881951929452E-07  8.34734205444848E+00
 cg2d: Sum(rhs),rhsMax =  -1.03888730507151E-07  8.34681927427749E+00
 cg2d: Sum(rhs),rhsMax =  -1.03893782466002E-07  8.34642479662444E+00
 cg2d: Sum(rhs),rhsMax =  -1.03896695691219E-07  8.34616690162161E+00
 cg2d: Sum(rhs),rhsMax =  -1.03898251779810E-07  8.34605328416144E+00
 cg2d: Sum(rhs),rhsMax =  -1.03897747294468E-07  8.34609086201575E+00
 cg2d: Sum(rhs),rhsMax =  -1.03895416714295E-07  8.34628560159372E+00
 cg2d: Sum(rhs),rhsMax =  -1.03891132141598E-07  8.34664238294981E+00
 cg2d: Sum(rhs),rhsMax =  -1.03884730151549E-07  8.34716488141953E+00
 cg2d: Sum(rhs),rhsMax =  -1.03876232060429E-07  8.34785544920597E+00
 cg2d: Sum(rhs),rhsMax =  -1.03865339440290E-07  8.34871504733891E+00
 cg2d: Sum(rhs),rhsMax =  -1.03852393351644E-07  8.34974320296400E+00
 cg2d: Sum(rhs),rhsMax =  -1.03837578535604E-07  8.35093803633076E+00
 cg2d: Sum(rhs),rhsMax =  -1.03820866570459E-07  8.35229628921908E+00
 cg2d: Sum(rhs),rhsMax =  -1.03801575335183E-07  8.35381348895399E+00
 cg2d: Sum(rhs),rhsMax =  -1.03780770643880E-07  8.35548405560547E+00
 cg2d: Sum(rhs),rhsMax =  -1.03758168279455E-07  8.35730145035772E+00
 cg2d: Sum(rhs),rhsMax =  -1.03734052459004E-07  8.35925834161856E+00
 cg2d: Sum(rhs),rhsMax =  -1.03707641585515E-07  8.36134677020027E+00
 cg2d: Sum(rhs),rhsMax =  -1.03680264373907E-07  8.36355833544679E+00
 EXTERNAL_FIELDS_LOAD, it=   3600630 : Reading new data, i0,i1=   11   12 (prev=   10   11 )
 DIC_FIELDS_LOAD, it=   3600630 : Reading new data, i0,i1=   11   12 (prev=   10   11 )
 cg2d: Sum(rhs),rhsMax =  -1.03651167648877E-07  8.36588437297216E+00
 cg2d: Sum(rhs),rhsMax =  -1.03620983793462E-07  8.36829873825493E+00
 cg2d: Sum(rhs),rhsMax =  -1.03590167555012E-07  8.37078098256463E+00
 cg2d: Sum(rhs),rhsMax =  -1.03558832620365E-07  8.37331076990736E+00
 cg2d: Sum(rhs),rhsMax =  -1.03526986094948E-07  8.37586828475342E+00
 cg2d: Sum(rhs),rhsMax =  -1.03494969039275E-07  8.37843651347270E+00
 cg2d: Sum(rhs),rhsMax =  -1.03462959089029E-07  8.38100058596186E+00
 cg2d: Sum(rhs),rhsMax =  -1.03431759157502E-07  8.38354800119352E+00
 cg2d: Sum(rhs),rhsMax =  -1.03400431328282E-07  8.38606907281455E+00
 cg2d: Sum(rhs),rhsMax =  -1.03369536930131E-07  8.38855705740912E+00
 cg2d: Sum(rhs),rhsMax =  -1.03339182544460E-07  8.39100818777902E+00
 cg2d: Sum(rhs),rhsMax =  -1.03309091059600E-07  8.39342162927294E+00
 cg2d: Sum(rhs),rhsMax =  -1.03279326424399E-07  8.39579937673915E+00
 cg2d: Sum(rhs),rhsMax =  -1.03250158645096E-07  8.39814606298476E+00
 cg2d: Sum(rhs),rhsMax =  -1.03221587721691E-07  8.40046867037939E+00
 cg2d: Sum(rhs),rhsMax =  -1.03192640210636E-07  8.40277617859981E+00
 cg2d: Sum(rhs),rhsMax =  -1.03164317977189E-07  8.40507915533000E+00
 cg2d: Sum(rhs),rhsMax =  -1.03135583628955E-07  8.40738929078001E+00
 cg2d: Sum(rhs),rhsMax =  -1.03106465587643E-07  8.40971893982490E+00
 cg2d: Sum(rhs),rhsMax =  -1.03077603341717E-07  8.41208069021930E+00
 cg2d: Sum(rhs),rhsMax =  -1.03047760546815E-07  8.41448664736628E+00
 cg2d: Sum(rhs),rhsMax =  -1.03017328001442E-07  8.41694808963461E+00
 cg2d: Sum(rhs),rhsMax =  -1.02985850958248E-07  8.41947641344255E+00
 cg2d: Sum(rhs),rhsMax =  -1.02953762848301E-07  8.42209465677943E+00
 cg2d: Sum(rhs),rhsMax =  -1.02920779454507E-07  8.42481840011152E+00
 cg2d: Sum(rhs),rhsMax =  -1.02885756803062E-07  8.42766143831664E+00
 cg2d: Sum(rhs),rhsMax =  -1.02849760708068E-07  8.43063562227923E+00
 cg2d: Sum(rhs),rhsMax =  -1.02811505087175E-07  8.43375048923612E+00
 cg2d: Sum(rhs),rhsMax =  -1.02771743115682E-07  8.43701312183894E+00
 cg2d: Sum(rhs),rhsMax =  -1.02730268736195E-07  8.44042805498092E+00
 cg2d: Sum(rhs),rhsMax =  -1.02686364300553E-07  8.44399728026233E+00
 cg2d: Sum(rhs),rhsMax =  -1.02641237731405E-07  8.44772028674299E+00
 cg2d: Sum(rhs),rhsMax =  -1.02594057693750E-07  8.45159419183708E+00
 cg2d: Sum(rhs),rhsMax =  -1.02545079982974E-07  8.45561389463918E+00
 cg2d: Sum(rhs),rhsMax =  -1.02494418285914E-07  8.45977229544668E+00
 cg2d: Sum(rhs),rhsMax =  -1.02442626825905E-07  8.46406043486096E+00
 cg2d: Sum(rhs),rhsMax =  -1.02389186906748E-07  8.46846786249842E+00
 cg2d: Sum(rhs),rhsMax =  -1.02334411167249E-07  8.47298294092153E+00
 cg2d: Sum(rhs),rhsMax =  -1.02278569613645E-07  8.47759310010859E+00
 cg2d: Sum(rhs),rhsMax =  -1.02221783038203E-07  8.48228511495217E+00
 cg2d: Sum(rhs),rhsMax =  -1.02164435134000E-07  8.48704540520819E+00
 cg2d: Sum(rhs),rhsMax =  -1.02106639587873E-07  8.49186038102640E+00
 cg2d: Sum(rhs),rhsMax =  -1.02048161920720E-07  8.49671683330553E+00
 cg2d: Sum(rhs),rhsMax =  -1.01989222400789E-07  8.50160229731839E+00
 cg2d: Sum(rhs),rhsMax =  -1.01930119456028E-07  8.50650541756349E+00
 cg2d: Sum(rhs),rhsMax =  -1.01871734159431E-07  8.51141606286167E+00
 cg2d: Sum(rhs),rhsMax =  -1.01813114383731E-07  8.51632550458549E+00
 cg2d: Sum(rhs),rhsMax =  -1.01754352499484E-07  8.52122658728227E+00
 cg2d: Sum(rhs),rhsMax =  -1.01695938781177E-07  8.52611387363114E+00
 cg2d: Sum(rhs),rhsMax =  -1.01637908755947E-07  8.53098375482528E+00
 cg2d: Sum(rhs),rhsMax =  -1.01580091893538E-07  8.53583450654913E+00
 cg2d: Sum(rhs),rhsMax =  -1.01522516615660E-07  8.54066629803099E+00
 cg2d: Sum(rhs),rhsMax =  -1.01465325030858E-07  8.54548114840508E+00
 cg2d: Sum(rhs),rhsMax =  -1.01408510033707E-07  8.55028281355603E+00
 cg2d: Sum(rhs),rhsMax =  -1.01351844250530E-07  8.55507663782142E+00
 cg2d: Sum(rhs),rhsMax =  -1.01294901355686E-07  8.55986938569464E+00
 cg2d: Sum(rhs),rhsMax =  -1.01238242677937E-07  8.56466907941720E+00
 cg2d: Sum(rhs),rhsMax =  -1.01181711897880E-07  8.56948481849350E+00
 cg2d: Sum(rhs),rhsMax =  -1.01124427942523E-07  8.57432655386490E+00
 cg2d: Sum(rhs),rhsMax =  -1.01066994773191E-07  8.57920482306538E+00
 EXTERNAL_FIELDS_LOAD, it=   3600690 : Reading new data, i0,i1=   12    1 (prev=   11   12 )
 DIC_FIELDS_LOAD, it=   3600690 : Reading new data, i0,i1=   12    1 (prev=   11   12 )
 cg2d: Sum(rhs),rhsMax =  -1.01009099751082E-07  8.58413045456863E+00
 cg2d: Sum(rhs),rhsMax =  -1.00950970249869E-07  8.58908772075261E+00
 cg2d: Sum(rhs),rhsMax =  -1.00892201260194E-07  8.59407113784658E+00
 cg2d: Sum(rhs),rhsMax =  -1.00833979388426E-07  8.59907533504329E+00
 cg2d: Sum(rhs),rhsMax =  -1.00775366718153E-07  8.60409527812640E+00
 cg2d: Sum(rhs),rhsMax =  -1.00716533779632E-07  8.60912639608676E+00
 cg2d: Sum(rhs),rhsMax =  -1.00657807422522E-07  8.61416467727663E+00
 cg2d: Sum(rhs),rhsMax =  -1.00599194752249E-07  8.61920670304104E+00
 cg2d: Sum(rhs),rhsMax =  -1.00540219705181E-07  8.62424959025954E+00
 cg2d: Sum(rhs),rhsMax =  -1.00481713616318E-07  8.62929084710763E+00
 cg2d: Sum(rhs),rhsMax =  -1.00423278581729E-07  8.63432823431656E+00
 cg2d: Sum(rhs),rhsMax =  -1.00365085131671E-07  8.63935967110789E+00
 cg2d: Sum(rhs),rhsMax =  -1.00306984052168E-07  8.64438326330631E+00
 cg2d: Sum(rhs),rhsMax =  -1.00248698231553E-07  8.64939736363611E+00
 cg2d: Sum(rhs),rhsMax =  -1.00191144269957E-07  8.65440069908248E+00
 cg2d: Sum(rhs),rhsMax =  -1.00133568992078E-07  8.65939260929048E+00
 cg2d: Sum(rhs),rhsMax =  -1.00076100295610E-07  8.66437312037654E+00
 cg2d: Sum(rhs),rhsMax =  -1.00019036608501E-07  8.66934290835576E+00
 cg2d: Sum(rhs),rhsMax =  -9.99617597585711E-08  8.67430225124478E+00
 cg2d: Sum(rhs),rhsMax =  -9.99047102823170E-08  8.67925494682890E+00
 cg2d: Sum(rhs),rhsMax =  -9.98482363456787E-08  8.68420608713978E+00
 cg2d: Sum(rhs),rhsMax =  -9.97913716105359E-08  8.68916081980566E+00
 cg2d: Sum(rhs),rhsMax =  -9.97343434505638E-08  8.69412416784580E+00
 cg2d: Sum(rhs),rhsMax =  -9.96773295014464E-08  8.69910085245627E+00
 cg2d: Sum(rhs),rhsMax =  -9.96202871306195E-08  8.70409517445086E+00
 cg2d: Sum(rhs),rhsMax =  -9.95629250155616E-08  8.70911095741398E+00
 cg2d: Sum(rhs),rhsMax =  -9.95059110664442E-08  8.71415148969223E+00
 cg2d: Sum(rhs),rhsMax =  -9.94480160443345E-08  8.71921930590513E+00
 cg2d: Sum(rhs),rhsMax =  -9.93902702361993E-08  8.72431607432102E+00
 cg2d: Sum(rhs),rhsMax =  -9.93317215147727E-08  8.72944261226047E+00
 cg2d: Sum(rhs),rhsMax =  -9.92735280647139E-08  8.73459893266904E+00
 cg2d: Sum(rhs),rhsMax =  -9.92147448641845E-08  8.73978430818157E+00
 cg2d: Sum(rhs),rhsMax =  -9.91560966667748E-08  8.74499735837366E+00
 cg2d: Sum(rhs),rhsMax =  -9.90966526615011E-08  8.75023614706347E+00
 cg2d: Sum(rhs),rhsMax =  -9.90366970654577E-08  8.75549829188909E+00
 cg2d: Sum(rhs),rhsMax =  -9.89772743764661E-08  8.76078107848702E+00
 cg2d: Sum(rhs),rhsMax =  -9.89177024735000E-08  8.76608155580086E+00
 cg2d: Sum(rhs),rhsMax =  -9.88579742511320E-08  8.77139664107964E+00
 cg2d: Sum(rhs),rhsMax =  -9.87977060162848E-08  8.77672320795606E+00
 cg2d: Sum(rhs),rhsMax =  -9.87382264838743E-08  8.78205816635757E+00
(PID.TID 0000.0001) Did not write pickup because writePickupAtEnd = FALSE
 DIC_SURFFORCING_INIT, it=   3600000 : Reading new data, i0,i1=   12    1
 QQ: pCO2 approximation method
 QQ first guess pH 8.2869849781645275,  7.129213793781922,  34.1535348423009,  2.0282,  5.43799999999999991E-4,  8.08490416966378689E-3,  2.3086000000000002
(PID.TID 0000.0001) // =======================================================
(PID.TID 0000.0001) // Model current state
(PID.TID 0000.0001) // =======================================================
(PID.TID 0000.0001) 
 EXTERNAL_FIELDS_LOAD, it=   3600000 : Reading new data, i0,i1=   12    1 (prev=   12    0 )
 DIC_FIELDS_LOAD, it=   3600000 : Reading new data, i0,i1=   12    1 (prev=   12    0 )
 cg2d: Sum(rhs),rhsMax =  -9.92433868418630E-08  8.73439671821315E+00
 cg2d: Sum(rhs),rhsMax =  -9.91844260056496E-08  8.73957958587058E+00
 cg2d: Sum(rhs),rhsMax =  -9.91252449011881E-08  8.74478969091806E+00
 cg2d: Sum(rhs),rhsMax =  -9.90665185440776E-08  8.75002495477880E+00
 cg2d: Sum(rhs),rhsMax =  -9.90068542705558E-08  8.75528284057604E+00
 cg2d: Sum(rhs),rhsMax =  -9.89473534218632E-08  8.76056047500076E+00
 cg2d: Sum(rhs),rhsMax =  -9.88878241514612E-08  8.76585475900637E+00
 cg2d: Sum(rhs),rhsMax =  -9.88279893476829E-08  8.77116249138180E+00
 cg2d: Sum(rhs),rhsMax =  -9.87682469144602E-08  8.77648047471154E+00
 cg2d: Sum(rhs),rhsMax =  -9.87087602766223E-08  8.78180560756084E+00
 cg2d: Sum(rhs),rhsMax =  -9.86489112619893E-08  8.78713494778165E+00
 cg2d: Sum(rhs),rhsMax =  -9.85891404070571E-08  8.79246575399440E+00
 cg2d: Sum(rhs),rhsMax =  -9.85293340249882E-08  8.79779549299699E+00
 cg2d: Sum(rhs),rhsMax =  -9.84700747608258E-08  8.80312181092759E+00
 cg2d: Sum(rhs),rhsMax =  -9.84108581292276E-08  8.80844249631459E+00
 cg2d: Sum(rhs),rhsMax =  -9.83516486030567E-08  8.81375547068360E+00
 cg2d: Sum(rhs),rhsMax =  -9.82926522397065E-08  8.81905885446822E+00
 cg2d: Sum(rhs),rhsMax =  -9.82337553523394E-08  8.82435106608147E+00
 cg2d: Sum(rhs),rhsMax =  -9.81751568929212E-08  8.82963093738125E+00
 cg2d: Sum(rhs),rhsMax =  -9.81166650149135E-08  8.83489782452132E+00
 cg2d: Sum(rhs),rhsMax =  -9.80585213028462E-08  8.84015168145881E+00
 cg2d: Sum(rhs),rhsMax =  -9.80007470730015E-08  8.84539306572338E+00
 cg2d: Sum(rhs),rhsMax =  -9.79429586323022E-08  8.85062306296846E+00
 cg2d: Sum(rhs),rhsMax =  -9.78853904598509E-08  8.85584316140559E+00
 cg2d: Sum(rhs),rhsMax =  -9.78280425556477E-08  8.86105508303604E+00
 cg2d: Sum(rhs),rhsMax =  -9.77709291305473E-08  8.86626061391844E+00
 cg2d: Sum(rhs),rhsMax =  -9.77132472712583E-08  8.87146147123075E+00
 cg2d: Sum(rhs),rhsMax =  -9.76563327981239E-08  8.87665923110881E+00
 cg2d: Sum(rhs),rhsMax =  -9.75990843699037E-08  8.88185530584736E+00
 cg2d: Sum(rhs),rhsMax =  -9.75420704207863E-08  8.88705095973601E+00
 EXTERNAL_FIELDS_LOAD, it=   3600030 : Reading new data, i0,i1=    1    2 (prev=   12    1 )
 DIC_FIELDS_LOAD, it=   3600030 : Reading new data, i0,i1=    1    2 (prev=   12    1 )
 cg2d: Sum(rhs),rhsMax =  -9.74853406887632E-08  8.89224735691429E+00
 cg2d: Sum(rhs),rhsMax =  -9.74287814869967E-08  8.89742706375180E+00
 cg2d: Sum(rhs),rhsMax =  -9.73723857100595E-08  8.90258000132907E+00
 cg2d: Sum(rhs),rhsMax =  -9.73164659967551E-08  8.90769672951691E+00
 cg2d: Sum(rhs),rhsMax =  -9.72612284044772E-08  8.91276878246959E+00
 cg2d: Sum(rhs),rhsMax =  -9.72070637317302E-08  8.91778889429735E+00
 cg2d: Sum(rhs),rhsMax =  -9.71530482729577E-08  8.92275113682099E+00
 cg2d: Sum(rhs),rhsMax =  -9.70993241367069E-08  8.92765100404361E+00
 cg2d: Sum(rhs),rhsMax =  -9.70471916161841E-08  8.93248545016401E+00
 cg2d: Sum(rhs),rhsMax =  -9.69955280538670E-08  8.93725287491615E+00
 cg2d: Sum(rhs),rhsMax =  -9.69441273923621E-08  8.94195305183593E+00
 cg2d: Sum(rhs),rhsMax =  -9.68941833434656E-08  8.94658701582531E+00
 cg2d: Sum(rhs),rhsMax =  -9.68450208915783E-08  8.95115692214719E+00
 cg2d: Sum(rhs),rhsMax =  -9.67962705544778E-08  8.95566589123099E+00
 cg2d: Sum(rhs),rhsMax =  -9.67482165492584E-08  8.96011786358850E+00
 cg2d: Sum(rhs),rhsMax =  -9.67008020325011E-08  8.96451747891563E+00
 cg2d: Sum(rhs),rhsMax =  -9.66539346336504E-08  8.96886998187158E+00
 cg2d: Sum(rhs),rhsMax =  -9.66078843589457E-08  8.97318115409823E+00
 cg2d: Sum(rhs),rhsMax =  -9.65621254067628E-08  8.97745726495199E+00
 cg2d: Sum(rhs),rhsMax =  -9.65159685506478E-08  8.98170502198163E+00
 cg2d: Sum(rhs),rhsMax =  -9.64709272466280E-08  8.98593151889555E+00
 cg2d: Sum(rhs),rhsMax =  -9.64258006774799E-08  8.99014423145949E+00
 cg2d: Sum(rhs),rhsMax =  -9.63806954246138E-08  8.99435085408351E+00
 cg2d: Sum(rhs),rhsMax =  -9.63354978011921E-08  8.99855914272681E+00
 cg2d: Sum(rhs),rhsMax =  -9.62904493917449E-08  9.00277662786875E+00
 cg2d: Sum(rhs),rhsMax =  -9.62449746566563E-08  9.00700998220796E+00
 cg2d: Sum(rhs),rhsMax =  -9.61997557169525E-08  9.01126574761483E+00
 cg2d: Sum(rhs),rhsMax =  -9.61540180810516E-08  9.01555039729210E+00
 cg2d: Sum(rhs),rhsMax =  -9.61077120109621E-08  9.01986971435378E+00
 cg2d: Sum(rhs),rhsMax =  -9.60613775191632E-08  9.02422880815445E+00
 cg2d: Sum(rhs),rhsMax =  -9.60143182737738E-08  9.02863205182447E+00
 cg2d: Sum(rhs),rhsMax =  -9.59668398081703E-08  9.03308295193821E+00
 cg2d: Sum(rhs),rhsMax =  -9.59189492277801E-08  9.03758400719746E+00
 cg2d: Sum(rhs),rhsMax =  -9.58706323217484E-08  9.04213663854453E+00
 cg2d: Sum(rhs),rhsMax =  -9.58215622404168E-08  9.04674109185253E+00
 cg2d: Sum(rhs),rhsMax =  -9.57721724148541E-08  9.05139640217902E+00
 cg2d: Sum(rhs),rhsMax =  -9.57223775799321E-08  9.05610040614876E+00
 cg2d: Sum(rhs),rhsMax =  -9.56718224642827E-08  9.06084979109159E+00
 cg2d: Sum(rhs),rhsMax =  -9.56211039238042E-08  9.06564017672268E+00
 cg2d: Sum(rhs),rhsMax =  -9.55700798499493E-08  9.07046622792088E+00
 cg2d: Sum(rhs),rhsMax =  -9.55189918272481E-08  9.07532179655311E+00
 cg2d: Sum(rhs),rhsMax =  -9.54672145780933E-08  9.08020008054443E+00
 cg2d: Sum(rhs),rhsMax =  -9.54156860188959E-08  9.08509379067778E+00
 cg2d: Sum(rhs),rhsMax =  -9.53640864054250E-08  9.08999532389517E+00
 cg2d: Sum(rhs),rhsMax =  -9.53120391500306E-08  9.09489685062687E+00
 cg2d: Sum(rhs),rhsMax =  -9.52604963799786E-08  9.09979078670731E+00
 cg2d: Sum(rhs),rhsMax =  -9.52091738781746E-08  9.10466952325132E+00
 cg2d: Sum(rhs),rhsMax =  -9.51581995423112E-08  9.10952586151125E+00
 cg2d: Sum(rhs),rhsMax =  -9.51075378452515E-08  9.11435305322486E+00
 cg2d: Sum(rhs),rhsMax =  -9.50568974644739E-08  9.11914489544444E+00
 cg2d: Sum(rhs),rhsMax =  -9.50070173644235E-08  9.12389583482653E+00
 cg2d: Sum(rhs),rhsMax =  -9.49582670273230E-08  9.12860106773695E+00
 cg2d: Sum(rhs),rhsMax =  -9.49094669522310E-08  9.13325671324743E+00
 cg2d: Sum(rhs),rhsMax =  -9.48612637330370E-08  9.13785989332165E+00
 cg2d: Sum(rhs),rhsMax =  -9.48139060596986E-08  9.14240888612431E+00
 cg2d: Sum(rhs),rhsMax =  -9.47671381368309E-08  9.14690322805975E+00
 cg2d: Sum(rhs),rhsMax =  -9.47210025969980E-08  9.15134376400067E+00
 cg2d: Sum(rhs),rhsMax =  -9.46753857533622E-08  9.15573262291172E+00
 cg2d: Sum(rhs),rhsMax =  -9.46305078741716E-08  9.16007311317651E+00
 cg2d: Sum(rhs),rhsMax =  -9.45855020972886E-08  9.16436954661381E+00
 EXTERNAL_FIELDS_LOAD, it=   3600090 : Reading new data, i0,i1=    2    3 (prev=    1    2 )
 DIC_FIELDS_LOAD, it=   3600090 : Reading new data, i0,i1=    2    3 (prev=    1    2 )
 cg2d: Sum(rhs),rhsMax =  -9.45416047670733E-08  9.16862700792054E+00
 cg2d: Sum(rhs),rhsMax =  -9.44977784911316E-08  9.17286965792043E+00
 cg2d: Sum(rhs),rhsMax =  -9.44538882663437E-08  9.17711460232796E+00
 cg2d: Sum(rhs),rhsMax =  -9.44097777733077E-08  9.18137827264839E+00
 cg2d: Sum(rhs),rhsMax =  -9.43655606988614E-08  9.18567586102450E+00
 cg2d: Sum(rhs),rhsMax =  -9.43208533499273E-08  9.19002086507332E+00
 cg2d: Sum(rhs),rhsMax =  -9.42755065125311E-08  9.19442473147613E+00
 cg2d: Sum(rhs),rhsMax =  -9.42294988703907E-08  9.19889660310093E+00
 cg2d: Sum(rhs),rhsMax =  -9.41831217460276E-08  9.20344317156002E+00
 cg2d: Sum(rhs),rhsMax =  -9.41357711781166E-08  9.20806863385625E+00
 cg2d: Sum(rhs),rhsMax =  -9.40875679589226E-08  9.21277472508850E+00
 cg2d: Sum(rhs),rhsMax =  -9.40387323566938E-08  9.21756082935263E+00
 cg2d: Sum(rhs),rhsMax =  -9.39891506845925E-08  9.22242415169496E+00
 cg2d: Sum(rhs),rhsMax =  -9.39387589937724E-08  9.22735992735964E+00
 cg2d: Sum(rhs),rhsMax =  -9.38874578082505E-08  9.23236166048178E+00
 cg2d: Sum(rhs),rhsMax =  -9.38360713576003E-08  9.23742136926884E+00
 cg2d: Sum(rhs),rhsMax =  -9.37847204340869E-08  9.24252982829311E+00
 cg2d: Sum(rhs),rhsMax =  -9.37326518624104E-08  9.24767682825910E+00
 cg2d: Sum(rhs),rhsMax =  -9.36799651185538E-08  9.25285135651627E+00
 cg2d: Sum(rhs),rhsMax =  -9.36278468088858E-08  9.25804181556396E+00
 cg2d: Sum(rhs),rhsMax =  -9.35753803332773E-08  9.26323624437734E+00
 cg2d: Sum(rhs),rhsMax =  -9.35233543941649E-08  9.26842252954541E+00
 cg2d: Sum(rhs),rhsMax =  -9.34712076627875E-08  9.27358855590945E+00
 cg2d: Sum(rhs),rhsMax =  -9.34198851609835E-08  9.27872221865362E+00
 cg2d: Sum(rhs),rhsMax =  -9.33687331894362E-08  9.28381269175841E+00
 cg2d: Sum(rhs),rhsMax =  -9.33183130769066E-08  9.28884990364347E+00
 cg2d: Sum(rhs),rhsMax =  -9.32684542931383E-08  9.29382460831193E+00
 cg2d: Sum(rhs),rhsMax =  -9.32194410552256E-08  9.29872876125425E+00
 cg2d: Sum(rhs),rhsMax =  -9.31711383600486E-08  9.30355578941157E+00
 cg2d: Sum(rhs),rhsMax =  -9.31240364820951E-08  9.30830071441787E+00
 cg2d: Sum(rhs),rhsMax =  -9.30773893514925E-08  9.31296016039586E+00
 cg2d: Sum(rhs),rhsMax =  -9.30318719838397E-08  9.31753230345820E+00
 cg2d: Sum(rhs),rhsMax =  -9.29872783217434E-08  9.32201677457960E+00
 cg2d: Sum(rhs),rhsMax =  -9.29437931063148E-08  9.32641453687162E+00
 cg2d: Sum(rhs),rhsMax =  -9.29007910599466E-08  9.33072777407330E+00
 cg2d: Sum(rhs),rhsMax =  -9.28590253579387E-08  9.33495977832897E+00
 cg2d: Sum(rhs),rhsMax =  -9.28177001924269E-08  9.33911483571782E+00
 cg2d: Sum(rhs),rhsMax =  -9.27770358316593E-08  9.34319809772528E+00
 cg2d: Sum(rhs),rhsMax =  -9.27373591252945E-08  9.34721542637213E+00
 cg2d: Sum(rhs),rhsMax =  -9.26982295368362E-08  9.35117321728378E+00
 cg2d: Sum(rhs),rhsMax =  -9.26594978523099E-08  9.35507820898651E+00
 cg2d: Sum(rhs),rhsMax =  -9.26212777585533E-08  9.35893728101038E+00
 cg2d: Sum(rhs),rhsMax =  -9.25836900478316E-08  9.36275724876052E+00
 cg2d: Sum(rhs),rhsMax =  -9.25467347201447E-08  9.36654466497940E+00
 cg2d: Sum(rhs),rhsMax =  -9.25093388559617E-08  9.37030563739009E+00
 cg2d: Sum(rhs),rhsMax =  -9.24723693174201E-08  9.37404566529748E+00
 cg2d: Sum(rhs),rhsMax =  -9.24358261045199E-08  9.37776950669782E+00
 cg2d: Sum(rhs),rhsMax =  -9.23998015878169E-08  9.38148107939576E+00
 cg2d: Sum(rhs),rhsMax =  -9.23633649563271E-08  9.38518340080342E+00
 cg2d: Sum(rhs),rhsMax =  -9.23271628039402E-08  9.38887856431341E+00
 cg2d: Sum(rhs),rhsMax =  -9.22907545941598E-08  9.39256775253961E+00
 cg2d: Sum(rhs),rhsMax =  -9.22549361348501E-08  9.39625127829926E+00
 cg2d: Sum(rhs),rhsMax =  -9.22186487173349E-08  9.39992865313115E+00
 cg2d: Sum(rhs),rhsMax =  -9.21831713185384E-08  9.40359867110262E+00
 cg2d: Sum(rhs),rhsMax =  -9.21473457538013E-08  9.40725949891390E+00
 cg2d: Sum(rhs),rhsMax =  -9.21119038821416E-08  9.41090875978471E+00
 cg2d: Sum(rhs),rhsMax =  -9.20763412182168E-08  9.41454361858659E+00
 cg2d: Sum(rhs),rhsMax =  -9.20410343496769E-08  9.41816086827301E+00
 cg2d: Sum(rhs),rhsMax =  -9.20060685416502E-08  9.42175701532902E+00
 cg2d: Sum(rhs),rhsMax =  -9.19711879987517E-08  9.42532836100955E+00
 EXTERNAL_FIELDS_LOAD, it=   3600150 : Reading new data, i0,i1=    3    4 (prev=    2    3 )
 DIC_FIELDS_LOAD, it=   3600150 : Reading new data, i0,i1=    3    4 (prev=    2    3 )
 cg2d: Sum(rhs),rhsMax =  -9.19367622032041E-08  9.42887108055882E+00
 cg2d: Sum(rhs),rhsMax =  -9.19030327395376E-08  9.43235832256638E+00
 cg2d: Sum(rhs),rhsMax =  -9.18696727580937E-08  9.43577294710938E+00
 cg2d: Sum(rhs),rhsMax =  -9.18375349101552E-08  9.43909901719340E+00
 cg2d: Sum(rhs),rhsMax =  -9.18056457521743E-08  9.44232226351574E+00
 cg2d: Sum(rhs),rhsMax =  -9.17754618967592E-08  9.44543045713848E+00
 cg2d: Sum(rhs),rhsMax =  -9.17468696570722E-08  9.44841368652191E+00
 cg2d: Sum(rhs),rhsMax =  -9.17188671678559E-08  9.45126453300903E+00
 cg2d: Sum(rhs),rhsMax =  -9.16929749905648E-08  9.45397814472091E+00
 cg2d: Sum(rhs),rhsMax =  -9.16680278351123E-08  9.45655223330268E+00
 cg2d: Sum(rhs),rhsMax =  -9.16445941356869E-08  9.45898700078271E+00
 cg2d: Sum(rhs),rhsMax =  -9.16223754643397E-08  9.46128500172268E+00
 cg2d: Sum(rhs),rhsMax =  -9.16011231311131E-08  9.46345095767279E+00
 cg2d: Sum(rhs),rhsMax =  -9.15811568802383E-08  9.46549153513779E+00
 cg2d: Sum(rhs),rhsMax =  -9.15625619768434E-08  9.46741508859273E+00
 cg2d: Sum(rhs),rhsMax =  -9.15451252581079E-08  9.46923137659912E+00
 cg2d: Sum(rhs),rhsMax =  -9.15285980340741E-08  9.47095124324780E+00
 cg2d: Sum(rhs),rhsMax =  -9.15126108225195E-08  9.47258633929544E+00
 cg2d: Sum(rhs),rhsMax =  -9.14974762622478E-08  9.47414881667898E+00
 cg2d: Sum(rhs),rhsMax =  -9.14831588261222E-08  9.47565102854520E+00
 cg2d: Sum(rhs),rhsMax =  -9.14691185016636E-08  9.47710524161440E+00
 cg2d: Sum(rhs),rhsMax =  -9.14552913400257E-08  9.47852337330871E+00
 cg2d: Sum(rhs),rhsMax =  -9.14417910280463E-08  9.47991675839448E+00
 cg2d: Sum(rhs),rhsMax =  -9.14288023068366E-08  9.48129594936036E+00
 cg2d: Sum(rhs),rhsMax =  -9.14153162057119E-08  9.48267055268677E+00
 cg2d: Sum(rhs),rhsMax =  -9.14016951014673E-08  9.48404910672501E+00
 cg2d: Sum(rhs),rhsMax =  -9.13883866360266E-08  9.48543898881096E+00
 cg2d: Sum(rhs),rhsMax =  -9.13749147457565E-08  9.48684634838855E+00
 cg2d: Sum(rhs),rhsMax =  -9.13611231112554E-08  9.48827608016959E+00
 cg2d: Sum(rhs),rhsMax =  -9.13465854068818E-08  9.48973182637241E+00
 cg2d: Sum(rhs),rhsMax =  -9.13324456064402E-08  9.49121598932757E+00
 cg2d: Sum(rhs),rhsMax =  -9.13176805283911E-08  9.49272976482376E+00
 cg2d: Sum(rhs),rhsMax =  -9.13029793991882E-08  9.49427318407705E+00
 cg2d: Sum(rhs),rhsMax =  -9.12876600978052E-08  9.49584517202971E+00
 cg2d: Sum(rhs),rhsMax =  -9.12722768475760E-08  9.49744362566448E+00
 cg2d: Sum(rhs),rhsMax =  -9.12563962174318E-08  9.49906550905340E+00
 cg2d: Sum(rhs),rhsMax =  -9.12406292741252E-08  9.50070696299551E+00
 cg2d: Sum(rhs),rhsMax =  -9.12245567974423E-08  9.50236342680402E+00
 cg2d: Sum(rhs),rhsMax =  -9.12086122184519E-08  9.50402976802920E+00
 cg2d: Sum(rhs),rhsMax =  -9.11920636781360E-08  9.50570042893596E+00
 cg2d: Sum(rhs),rhsMax =  -9.11760835720088E-08  9.50736956748404E+00
 cg2d: Sum(rhs),rhsMax =  -9.11599897790438E-08  9.50903122489705E+00
 cg2d: Sum(rhs),rhsMax =  -9.11439812512072E-08  9.51067944299842E+00
 cg2d: Sum(rhs),rhsMax =  -9.11286619498242E-08  9.51230836255520E+00
 cg2d: Sum(rhs),rhsMax =  -9.11128452685261E-08  9.51391232343393E+00
 cg2d: Sum(rhs),rhsMax =  -9.10978172896648E-08  9.51548598638282E+00
 cg2d: Sum(rhs),rhsMax =  -9.10825903588375E-08  9.51702443978652E+00
 cg2d: Sum(rhs),rhsMax =  -9.10679744947629E-08  9.51852327194360E+00
 cg2d: Sum(rhs),rhsMax =  -9.10538062726118E-08  9.51997861079381E+00
 cg2d: Sum(rhs),rhsMax =  -9.10403272769145E-08  9.52138713289450E+00
 cg2d: Sum(rhs),rhsMax =  -9.10271680254482E-08  9.52274605554116E+00
 cg2d: Sum(rhs),rhsMax =  -9.10143498344951E-08  9.52405313717331E+00
 cg2d: Sum(rhs),rhsMax =  -9.10022919242692E-08  9.52530666028232E+00
 cg2d: Sum(rhs),rhsMax =  -9.09905324419924E-08  9.52650541109617E+00
 cg2d: Sum(rhs),rhsMax =  -9.09794692915966E-08  9.52764864727963E+00
 cg2d: Sum(rhs),rhsMax =  -9.09689816808168E-08  9.52873605079492E+00
 cg2d: Sum(rhs),rhsMax =  -9.09588422359775E-08  9.52976767849440E+00
 cg2d: Sum(rhs),rhsMax =  -9.09493280687457E-08  9.53074391639987E+00
 cg2d: Sum(rhs),rhsMax =  -9.09404391791213E-08  9.53166530103624E+00
 cg2d: Sum(rhs),rhsMax =  -9.09316284491979E-08  9.53253252588939E+00
 EXTERNAL_FIELDS_LOAD, it=   3600210 : Reading new data, i0,i1=    4    5 (prev=    3    4 )
 DIC_FIELDS_LOAD, it=   3600210 : Reading new data, i0,i1=    4    5 (prev=    3    4 )
 cg2d: Sum(rhs),rhsMax =  -9.09236845814121E-08  9.53334634295211E+00
 cg2d: Sum(rhs),rhsMax =  -9.09162238826866E-08  9.53412016630968E+00
 cg2d: Sum(rhs),rhsMax =  -9.09088555545168E-08  9.53486144691540E+00
 cg2d: Sum(rhs),rhsMax =  -9.09020556605356E-08  9.53557668814411E+00
 cg2d: Sum(rhs),rhsMax =  -9.08950781308704E-08  9.53626990934916E+00
 cg2d: Sum(rhs),rhsMax =  -9.08885269268467E-08  9.53694479201801E+00
 cg2d: Sum(rhs),rhsMax =  -9.08819686173956E-08  9.53760402798875E+00
 cg2d: Sum(rhs),rhsMax =  -9.08758792661502E-08  9.53824943192211E+00
 cg2d: Sum(rhs),rhsMax =  -9.08692001644340E-08  9.53888215688552E+00
 cg2d: Sum(rhs),rhsMax =  -9.08633310814366E-08  9.53950304357000E+00
 cg2d: Sum(rhs),rhsMax =  -9.08575117364308E-08  9.54011304176576E+00
 cg2d: Sum(rhs),rhsMax =  -9.08516142317239E-08  9.54071301635899E+00
 cg2d: Sum(rhs),rhsMax =  -9.08458943627011E-08  9.54130322912294E+00
 cg2d: Sum(rhs),rhsMax =  -9.08400252797037E-08  9.54188272003942E+00
 cg2d: Sum(rhs),rhsMax =  -9.08349306882883E-08  9.54244934290944E+00
 cg2d: Sum(rhs),rhsMax =  -9.08295305634965E-08  9.54299999628384E+00
 cg2d: Sum(rhs),rhsMax =  -9.08241872821236E-08  9.54353092308816E+00
 cg2d: Sum(rhs),rhsMax =  -9.08189861092978E-08  9.54403796863502E+00
 cg2d: Sum(rhs),rhsMax =  -9.08142894218145E-08  9.54451678452915E+00
 cg2d: Sum(rhs),rhsMax =  -9.08097916862971E-08  9.54496303374895E+00
 cg2d: Sum(rhs),rhsMax =  -9.08056705384297E-08  9.54537256688658E+00
 cg2d: Sum(rhs),rhsMax =  -9.08016417611179E-08  9.54574155534994E+00
 cg2d: Sum(rhs),rhsMax =  -9.07979256226099E-08  9.54606657177462E+00
 cg2d: Sum(rhs),rhsMax =  -9.07952681927782E-08  9.54634467959792E+00
 cg2d: Sum(rhs),rhsMax =  -9.07924189164078E-08  9.54657345840157E+00
 cg2d: Sum(rhs),rhsMax =  -9.07902162339269E-08  9.54675102924543E+00
 cg2d: Sum(rhs),rhsMax =  -9.07886743561903E-08  9.54687605379506E+00
 cg2d: Sum(rhs),rhsMax =  -9.07877648614885E-08  9.54694771403842E+00
 cg2d: Sum(rhs),rhsMax =  -9.07869193156330E-08  9.54696566951997E+00
 cg2d: Sum(rhs),rhsMax =  -9.07865995714019E-08  9.54692999068711E+00
 cg2d: Sum(rhs),rhsMax =  -9.07872106381546E-08  9.54684108541375E+00
 cg2d: Sum(rhs),rhsMax =  -9.07884682987969E-08  9.54669963264824E+00
 cg2d: Sum(rhs),rhsMax =  -9.07898467517043E-08  9.54650651972953E+00
 cg2d: Sum(rhs),rhsMax =  -9.07915449488428E-08  9.54626274758502E+00
 cg2d: Sum(rhs),rhsMax =  -9.07941455352557E-08  9.54596935750525E+00
 cg2d: Sum(rhs),rhsMax =  -9.07970800767544E-08  9.54562738075971E+00
 cg2d: Sum(rhs),rhsMax =  -9.08000501453898E-08  9.54523778248193E+00
 cg2d: Sum(rhs),rhsMax =  -9.08038089164620E-08  9.54480140259877E+00
 cg2d: Sum(rhs),rhsMax =  -9.08078732209106E-08  9.54431888382345E+00
 cg2d: Sum(rhs),rhsMax =  -9.08128896526250E-08  9.54379063440704E+00
 cg2d: Sum(rhs),rhsMax =  -9.08179274006216E-08  9.54321682610369E+00
 cg2d: Sum(rhs),rhsMax =  -9.08231072571652E-08  9.54259741627488E+00
 cg2d: Sum(rhs),rhsMax =  -9.08294239820862E-08  9.54193218180504E+00
 cg2d: Sum(rhs),rhsMax =  -9.08357407070071E-08  9.54122075566689E+00
 cg2d: Sum(rhs),rhsMax =  -9.08426116552619E-08  9.54046266149910E+00
 cg2d: Sum(rhs),rhsMax =  -9.08497668206110E-08  9.53965734943055E+00
 cg2d: Sum(rhs),rhsMax =  -9.08576467395505E-08  9.53880424419014E+00
 cg2d: Sum(rhs),rhsMax =  -9.08659032461401E-08  9.53790282192021E+00
 cg2d: Sum(rhs),rhsMax =  -9.08746713434994E-08  9.53695268180845E+00
 cg2d: Sum(rhs),rhsMax =  -9.08840078750472E-08  9.53595362230667E+00
 cg2d: Sum(rhs),rhsMax =  -9.08936215182621E-08  9.53490571447803E+00
 cg2d: Sum(rhs),rhsMax =  -9.09042654484438E-08  9.53380930168364E+00
 cg2d: Sum(rhs),rhsMax =  -9.09145470018302E-08  9.53266493640869E+00
 cg2d: Sum(rhs),rhsMax =  -9.09259227910297E-08  9.53147332889492E+00
 cg2d: Sum(rhs),rhsMax =  -9.09384141323244E-08  9.53023537646442E+00
 cg2d: Sum(rhs),rhsMax =  -9.09505217805417E-08  9.52895220993865E+00
 cg2d: Sum(rhs),rhsMax =  -9.09629278567081E-08  9.52762520262973E+00
 cg2d: Sum(rhs),rhsMax =  -9.09757815747980E-08  9.52625594300855E+00
 cg2d: Sum(rhs),rhsMax =  -9.09892747813501E-08  9.52484621149773E+00
 cg2d: Sum(rhs),rhsMax =  -9.10029882561503E-08  9.52339794221070E+00
 EXTERNAL_FIELDS_LOAD, it=   3600270 : Reading new data, i0,i1=    5    6 (prev=    4    5 )
 DIC_FIELDS_LOAD, it=   3600270 : Reading new data, i0,i1=    5    6 (prev=    4    5 )
 cg2d: Sum(rhs),rhsMax =  -9.10169930534721E-08  9.52191318167782E+00
 cg2d: Sum(rhs),rhsMax =  -9.10311257484864E-08  9.52041761022813E+00
 cg2d: Sum(rhs),rhsMax =  -9.10455213443129E-08  9.51892843351038E+00
 cg2d: Sum(rhs),rhsMax =  -9.10593485059508E-08  9.51746258399289E+00
 cg2d: Sum(rhs),rhsMax =  -9.10729625047679E-08  9.51603636817957E+00
 cg2d: Sum(rhs),rhsMax =  -9.10860507019606E-08  9.51466517931999E+00
 cg2d: Sum(rhs),rhsMax =  -9.10986344138109E-08  9.51336322967766E+00
 cg2d: Sum(rhs),rhsMax =  -9.11102233658312E-08  9.51214329321166E+00
 cg2d: Sum(rhs),rhsMax =  -9.11212367782355E-08  9.51101645114812E+00
 cg2d: Sum(rhs),rhsMax =  -9.11308219997409E-08  9.50999185515969E+00
 cg2d: Sum(rhs),rhsMax =  -9.11397606273567E-08  9.50907652378690E+00
 cg2d: Sum(rhs),rhsMax =  -9.11473847509114E-08  9.50827517814543E+00
 cg2d: Sum(rhs),rhsMax =  -9.11540354309182E-08  9.50759014752173E+00
 cg2d: Sum(rhs),rhsMax =  -9.11595421371203E-08  9.50702134377118E+00
 cg2d: Sum(rhs),rhsMax =  -9.11640682943471E-08  9.50656629011210E+00
 cg2d: Sum(rhs),rhsMax =  -9.11673012637948E-08  9.50622019182364E+00
 cg2d: Sum(rhs),rhsMax =  -9.11696744765322E-08  9.50597606771963E+00
 cg2d: Sum(rhs),rhsMax =  -9.11708539774736E-08  9.50582494250500E+00
 cg2d: Sum(rhs),rhsMax =  -9.11716497853376E-08  9.50575608648473E+00
 cg2d: Sum(rhs),rhsMax =  -9.11714224116622E-08  9.50575729587021E+00
 cg2d: Sum(rhs),rhsMax =  -9.11708468720462E-08  9.50581523373235E+00
 cg2d: Sum(rhs),rhsMax =  -9.11699018502077E-08  9.50591575069248E+00
 cg2d: Sum(rhs),rhsMax =  -9.11685589244371E-08  9.50604420974297E+00
 cg2d: Sum(rhs),rhsMax =  -9.11669744141363E-08  9.50618583284504E+00
 cg2d: Sum(rhs),rhsMax =  -9.11656883317846E-08  9.50632606101357E+00
 cg2d: Sum(rhs),rhsMax =  -9.11643525114414E-08  9.50645090757042E+00
 cg2d: Sum(rhs),rhsMax =  -9.11635567035773E-08  9.50654729113363E+00
 cg2d: Sum(rhs),rhsMax =  -9.11632938027651E-08  9.50660334354173E+00
 cg2d: Sum(rhs),rhsMax =  -9.11633009081925E-08  9.50660868062301E+00
 cg2d: Sum(rhs),rhsMax =  -9.11639332912273E-08  9.50655462562515E+00
 cg2d: Sum(rhs),rhsMax =  -9.11649706836215E-08  9.50643436311089E+00
 cg2d: Sum(rhs),rhsMax =  -9.11672302095212E-08  9.50624304674150E+00
 cg2d: Sum(rhs),rhsMax =  -9.11696460548228E-08  9.50597781905916E+00
 cg2d: Sum(rhs),rhsMax =  -9.11727440211507E-08  9.50563777710892E+00
 cg2d: Sum(rhs),rhsMax =  -9.11770854372662E-08  9.50522393135291E+00
 cg2d: Sum(rhs),rhsMax =  -9.11816186999204E-08  9.50473911463816E+00
 cg2d: Sum(rhs),rhsMax =  -9.11870614572763E-08  9.50418773930678E+00
 cg2d: Sum(rhs),rhsMax =  -9.11928168534359E-08  9.50357558691374E+00
 cg2d: Sum(rhs),rhsMax =  -9.11992827923314E-08  9.50290964447458E+00
 cg2d: Sum(rhs),rhsMax =  -9.12065729608003E-08  9.50219791542795E+00
 cg2d: Sum(rhs),rhsMax =  -9.12139270781154E-08  9.50144918276843E+00
 cg2d: Sum(rhs),rhsMax =  -9.12212811954305E-08  9.50067274580360E+00
 cg2d: Sum(rhs),rhsMax =  -9.12293955934729E-08  9.49987815929010E+00
 cg2d: Sum(rhs),rhsMax =  -9.12369131356172E-08  9.49907498366882E+00
 cg2d: Sum(rhs),rhsMax =  -9.12447788437021E-08  9.49827255755378E+00
 cg2d: Sum(rhs),rhsMax =  -9.12528008711888E-08  9.49747978836020E+00
 cg2d: Sum(rhs),rhsMax =  -9.12602686753416E-08  9.49670496341604E+00
 cg2d: Sum(rhs),rhsMax =  -9.12679780640246E-08  9.49595558374171E+00
 cg2d: Sum(rhs),rhsMax =  -9.12747850634332E-08  9.49523821505845E+00
 cg2d: Sum(rhs),rhsMax =  -9.12811941589098E-08  9.49455836839740E+00
 cg2d: Sum(rhs),rhsMax =  -9.12878306280618E-08  9.49392042323925E+00
 cg2d: Sum(rhs),rhsMax =  -9.12937139219139E-08  9.49332754785973E+00
 cg2d: Sum(rhs),rhsMax =  -9.12992632606802E-08  9.49278165465699E+00
 cg2d: Sum(rhs),rhsMax =  -9.13035833605136E-08  9.49228339433203E+00
 cg2d: Sum(rhs),rhsMax =  -9.13086424247922E-08  9.49183218209292E+00
 cg2d: Sum(rhs),rhsMax =  -9.13127422563775E-08  9.49142625728328E+00
 cg2d: Sum(rhs),rhsMax =  -9.13163518134752E-08  9.49106276286301E+00
 cg2d: Sum(rhs),rhsMax =  -9.13194782015125E-08  9.49073783789306E+00
 cg2d: Sum(rhs),rhsMax =  -9.13225406407037E-08  9.49044672400271E+00
 cg2d: Sum(rhs),rhsMax =  -9.13253046519458E-08  9.49018390323782E+00
 EXTERNAL_FIELDS_LOAD, it=   3600330 : Reading new data, i0,i1=    6    7 (prev=    5    6 )
 DIC_FIELDS_LOAD, it=   3600330 : Reading new data, i0,i1=    6    7 (prev=    5    6 )
 cg2d: Sum(rhs),rhsMax =  -9.13276210212643E-08  9.48994325700856E+00
 cg2d: Sum(rhs),rhsMax =  -9.13303352945150E-08  9.48970801758053E+00
 cg2d: Sum(rhs),rhsMax =  -9.13328221940901E-08  9.48946471682098E+00
 cg2d: Sum(rhs),rhsMax =  -9.13353943587936E-08  9.48919980375378E+00
 cg2d: Sum(rhs),rhsMax =  -9.13383644274290E-08  9.48889996251626E+00
 cg2d: Sum(rhs),rhsMax =  -9.13418460868343E-08  9.48855235316500E+00
 cg2d: Sum(rhs),rhsMax =  -9.13461093432488E-08  9.48814487205053E+00
 cg2d: Sum(rhs),rhsMax =  -9.13508344524416E-08  9.48766639266868E+00
 cg2d: Sum(rhs),rhsMax =  -9.13563624749258E-08  9.48710698236420E+00
 cg2d: Sum(rhs),rhsMax =  -9.13624518261713E-08  9.48645808347463E+00
 cg2d: Sum(rhs),rhsMax =  -9.13698130489138E-08  9.48571268422533E+00
 cg2d: Sum(rhs),rhsMax =  -9.13783111400335E-08  9.48486545850383E+00
 cg2d: Sum(rhs),rhsMax =  -9.13876760932908E-08  9.48391285858374E+00
 cg2d: Sum(rhs),rhsMax =  -9.13977800109933E-08  9.48285315351105E+00
 cg2d: Sum(rhs),rhsMax =  -9.14093334358768E-08  9.48168641391458E+00
 cg2d: Sum(rhs),rhsMax =  -9.14215760872139E-08  9.48041445516485E+00
 cg2d: Sum(rhs),rhsMax =  -9.14348703418000E-08  9.47904073781749E+00
 cg2d: Sum(rhs),rhsMax =  -9.14490314585237E-08  9.47757022510765E+00
 cg2d: Sum(rhs),rhsMax =  -9.14641802296501E-08  9.47600920384239E+00
 cg2d: Sum(rhs),rhsMax =  -9.14802384954783E-08  9.47436507523804E+00
 cg2d: Sum(rhs),rhsMax =  -9.14970428311790E-08  9.47264612546539E+00
 cg2d: Sum(rhs),rhsMax =  -9.15143658630768E-08  9.47086128598380E+00
 cg2d: Sum(rhs),rhsMax =  -9.15317244221114E-08  9.46901988541289E+00
 cg2d: Sum(rhs),rhsMax =  -9.15503548526431E-08  9.46713139755286E+00
 cg2d: Sum(rhs),rhsMax =  -9.15688005420634E-08  9.46520519129246E+00
 cg2d: Sum(rhs),rhsMax =  -9.15879354579374E-08  9.46325027783096E+00
 cg2d: Sum(rhs),rhsMax =  -9.16070561629567E-08  9.46127510172983E+00
 cg2d: Sum(rhs),rhsMax =  -9.16269016215665E-08  9.45928736176468E+00
 cg2d: Sum(rhs),rhsMax =  -9.16458375854745E-08  9.45729384446051E+00
 cg2d: Sum(rhs),rhsMax =  -9.16652354021608E-08  9.45530032221759E+00
 cg2d: Sum(rhs),rhsMax =  -9.16847469056847E-08  9.45331147339530E+00
 cg2d: Sum(rhs),rhsMax =  -9.17041660386531E-08  9.45133082537812E+00
 cg2d: Sum(rhs),rhsMax =  -9.17234714847837E-08  9.44936073119909E+00
 cg2d: Sum(rhs),rhsMax =  -9.17423008672813E-08  9.44740238220463E+00
 cg2d: Sum(rhs),rhsMax =  -9.17614002560185E-08  9.44545585645758E+00
 cg2d: Sum(rhs),rhsMax =  -9.17801870059520E-08  9.44352020252140E+00
 cg2d: Sum(rhs),rhsMax =  -9.17989737558855E-08  9.44159355733174E+00
 cg2d: Sum(rhs),rhsMax =  -9.18179097197935E-08  9.43967327626014E+00
 cg2d: Sum(rhs),rhsMax =  -9.18367177860091E-08  9.43775607395104E+00
 cg2d: Sum(rhs),rhsMax =  -9.18552629514124E-08  9.43583817490269E+00
 cg2d: Sum(rhs),rhsMax =  -9.18742912858761E-08  9.43391546318717E+00
 cg2d: Sum(rhs),rhsMax =  -9.18933977800407E-08  9.43198362529795E+00
 cg2d: Sum(rhs),rhsMax =  -9.19123053222393E-08  9.43003828806143E+00
 cg2d: Sum(rhs),rhsMax =  -9.19319091963189E-08  9.42807514245689E+00
 cg2d: Sum(rhs),rhsMax =  -9.19516196518089E-08  9.42609005034801E+00
 cg2d: Sum(rhs),rhsMax =  -9.19711453661876E-08  9.42407914155286E+00
 cg2d: Sum(rhs),rhsMax =  -9.19916374186869E-08  9.42203890101561E+00
 cg2d: Sum(rhs),rhsMax =  -9.20122005254598E-08  9.41996625280574E+00
 cg2d: Sum(rhs),rhsMax =  -9.20328773190704E-08  9.41785862954787E+00
 cg2d: Sum(rhs),rhsMax =  -9.20541722848611E-08  9.41571402403211E+00
 cg2d: Sum(rhs),rhsMax =  -9.20761920042423E-08  9.41353104362712E+00
 cg2d: Sum(rhs),rhsMax =  -9.20975224971698E-08  9.41130897700722E+00
 cg2d: Sum(rhs),rhsMax =  -9.21202243375774E-08  9.40904782014454E+00
 cg2d: Sum(rhs),rhsMax =  -9.21427556477283E-08  9.40674826682519E+00
 cg2d: Sum(rhs),rhsMax =  -9.21658624974953E-08  9.40441167656376E+00
 cg2d: Sum(rhs),rhsMax =  -9.21897651551262E-08  9.40204003109270E+00
 cg2d: Sum(rhs),rhsMax =  -9.22136393910478E-08  9.39963588692061E+00
 cg2d: Sum(rhs),rhsMax =  -9.22377765277815E-08  9.39720232327049E+00
 cg2d: Sum(rhs),rhsMax =  -9.22617147125493E-08  9.39474287623570E+00
 cg2d: Sum(rhs),rhsMax =  -9.22866476571471E-08  9.39226147078604E+00
 EXTERNAL_FIELDS_LOAD, it=   3600390 : Reading new data, i0,i1=    7    8 (prev=    6    7 )
 DIC_FIELDS_LOAD, it=   3600390 : Reading new data, i0,i1=    7    8 (prev=    6    7 )
 cg2d: Sum(rhs),rhsMax =  -9.23120353490958E-08  9.38976233427929E+00
 cg2d: Sum(rhs),rhsMax =  -9.23369185557021E-08  9.38724381347799E+00
 cg2d: Sum(rhs),rhsMax =  -9.23620930848301E-08  9.38470550458213E+00
 cg2d: Sum(rhs),rhsMax =  -9.23878431535741E-08  9.38214640732935E+00
 cg2d: Sum(rhs),rhsMax =  -9.24133303215058E-08  9.37956498127073E+00
 cg2d: Sum(rhs),rhsMax =  -9.24395564538827E-08  9.37695924403383E+00
 cg2d: Sum(rhs),rhsMax =  -9.24659673273709E-08  9.37432689628576E+00
 cg2d: Sum(rhs),rhsMax =  -9.24926268908166E-08  9.37166545130188E+00
 cg2d: Sum(rhs),rhsMax =  -9.25199330481519E-08  9.36897236493602E+00
 cg2d: Sum(rhs),rhsMax =  -9.25472107837777E-08  9.36624514198210E+00
 cg2d: Sum(rhs),rhsMax =  -9.25749148450450E-08  9.36348144222541E+00
 cg2d: Sum(rhs),rhsMax =  -9.26027894365689E-08  9.36067916467522E+00
 cg2d: Sum(rhs),rhsMax =  -9.26316801042049E-08  9.35783651518778E+00
 cg2d: Sum(rhs),rhsMax =  -9.26604357687211E-08  9.35495205473915E+00
 cg2d: Sum(rhs),rhsMax =  -9.26899872411013E-08  9.35202472862356E+00
 cg2d: Sum(rhs),rhsMax =  -9.27198087197212E-08  9.34905386050751E+00
 cg2d: Sum(rhs),rhsMax =  -9.27502270542391E-08  9.34603912446753E+00
 cg2d: Sum(rhs),rhsMax =  -9.27809580275607E-08  9.34298052032945E+00
 cg2d: Sum(rhs),rhsMax =  -9.28122148025068E-08  9.33987837125357E+00
 cg2d: Sum(rhs),rhsMax =  -9.28438836922396E-08  9.33673332003228E+00
 cg2d: Sum(rhs),rhsMax =  -9.28756591633828E-08  9.33354631509102E+00
 cg2d: Sum(rhs),rhsMax =  -9.29085999246126E-08  9.33031856217985E+00
 cg2d: Sum(rhs),rhsMax =  -9.29414056827227E-08  9.32705144157814E+00
 cg2d: Sum(rhs),rhsMax =  -9.29742824951063E-08  9.32374640924821E+00
 cg2d: Sum(rhs),rhsMax =  -9.30079835370634E-08  9.32040491207867E+00
 cg2d: Sum(rhs),rhsMax =  -9.30417982658582E-08  9.31702830536998E+00
 cg2d: Sum(rhs),rhsMax =  -9.30764798567907E-08  9.31361778906816E+00
 cg2d: Sum(rhs),rhsMax =  -9.31104011669959E-08  9.31017435680010E+00
 cg2d: Sum(rhs),rhsMax =  -9.31454593455783E-08  9.30669874783390E+00
 cg2d: Sum(rhs),rhsMax =  -9.31809367443748E-08  9.30319140183628E+00
 cg2d: Sum(rhs),rhsMax =  -9.32159238686836E-08  9.29965242032067E+00
 cg2d: Sum(rhs),rhsMax =  -9.32518702256857E-08  9.29608155387300E+00
 cg2d: Sum(rhs),rhsMax =  -9.32883352788849E-08  9.29247816276956E+00
 cg2d: Sum(rhs),rhsMax =  -9.33245232204172E-08  9.28884120452690E+00
 cg2d: Sum(rhs),rhsMax =  -9.33613577558390E-08  9.28516924951164E+00
 cg2d: Sum(rhs),rhsMax =  -9.33982562401070E-08  9.28146051649491E+00
 cg2d: Sum(rhs),rhsMax =  -9.34364479121541E-08  9.27771291851975E+00
 cg2d: Sum(rhs),rhsMax =  -9.34740143065937E-08  9.27392411497484E+00
 cg2d: Sum(rhs),rhsMax =  -9.35126251988549E-08  9.27009157616147E+00
 cg2d: Sum(rhs),rhsMax =  -9.35518329470142E-08  9.26621266064052E+00
 cg2d: Sum(rhs),rhsMax =  -9.35912964905583E-08  9.26228469753356E+00
 cg2d: Sum(rhs),rhsMax =  -9.36311082000429E-08  9.25830502540661E+00
 cg2d: Sum(rhs),rhsMax =  -9.36718080879473E-08  9.25427104022615E+00
 cg2d: Sum(rhs),rhsMax =  -9.37130835154676E-08  9.25018025806528E+00
 cg2d: Sum(rhs),rhsMax =  -9.37547639523473E-08  9.24603037476154E+00
 cg2d: Sum(rhs),rhsMax =  -9.37974888870485E-08  9.24181932462259E+00
 cg2d: Sum(rhs),rhsMax =  -9.38402919814507E-08  9.23754533703139E+00
 cg2d: Sum(rhs),rhsMax =  -9.38843172093584E-08  9.23320698439808E+00
 cg2d: Sum(rhs),rhsMax =  -9.39290814017113E-08  9.22880321317793E+00
 cg2d: Sum(rhs),rhsMax =  -9.39739734917566E-08  9.22433335164241E+00
 cg2d: Sum(rhs),rhsMax =  -9.40200521881707E-08  9.21979710173837E+00
 cg2d: Sum(rhs),rhsMax =  -9.40667135296280E-08  9.21519452384442E+00
 cg2d: Sum(rhs),rhsMax =  -9.41140712029664E-08  9.21052602027441E+00
 cg2d: Sum(rhs),rhsMax =  -9.41621181027585E-08  9.20579231856880E+00
 cg2d: Sum(rhs),rhsMax =  -9.42108115964402E-08  9.20099445172383E+00
 cg2d: Sum(rhs),rhsMax =  -9.42603506359774E-08  9.19613373409314E+00
 cg2d: Sum(rhs),rhsMax =  -9.43106570616692E-08  9.19121172891709E+00
 cg2d: Sum(rhs),rhsMax =  -9.43619582471911E-08  9.18623021276131E+00
 cg2d: Sum(rhs),rhsMax =  -9.44129254776271E-08  9.18119115032627E+00
 cg2d: Sum(rhs),rhsMax =  -9.44648874678933E-08  9.17609666859133E+00
 EXTERNAL_FIELDS_LOAD, it=   3600450 : Reading new data, i0,i1=    8    9 (prev=    7    8 )
 DIC_FIELDS_LOAD, it=   3600450 : Reading new data, i0,i1=    8    9 (prev=    7    8 )
 cg2d: Sum(rhs),rhsMax =  -9.45180929079470E-08  9.17094900539886E+00
 cg2d: Sum(rhs),rhsMax =  -9.45713196642828E-08  9.16576037761048E+00
 cg2d: Sum(rhs),rhsMax =  -9.46249869571147E-08  9.16053907873528E+00
 cg2d: Sum(rhs),rhsMax =  -9.46787679367844E-08  9.15529303788953E+00
 cg2d: Sum(rhs),rhsMax =  -9.47327123412833E-08  9.15002961005962E+00
 cg2d: Sum(rhs),rhsMax =  -9.47873814993727E-08  9.14475542293395E+00
 cg2d: Sum(rhs),rhsMax =  -9.48415888046839E-08  9.13947626776025E+00
 cg2d: Sum(rhs),rhsMax =  -9.48963148061921E-08  9.13419703804716E+00
 cg2d: Sum(rhs),rhsMax =  -9.49505718494947E-08  9.12892171232682E+00
 cg2d: Sum(rhs),rhsMax =  -9.50055820680973E-08  9.12365335338700E+00
 cg2d: Sum(rhs),rhsMax =  -9.50602441207593E-08  9.11839411243203E+00
 cg2d: Sum(rhs),rhsMax =  -9.51149274897034E-08  9.11314523538299E+00
 cg2d: Sum(rhs),rhsMax =  -9.51689713701853E-08  9.10790707134369E+00
 cg2d: Sum(rhs),rhsMax =  -9.52241663298992E-08  9.10267908920085E+00
 cg2d: Sum(rhs),rhsMax =  -9.52785583763216E-08  9.09745990818067E+00
 cg2d: Sum(rhs),rhsMax =  -9.53332346398383E-08  9.09224734512777E+00
 cg2d: Sum(rhs),rhsMax =  -9.53879322196372E-08  9.08703847736888E+00
 cg2d: Sum(rhs),rhsMax =  -9.54423811094784E-08  9.08182972075513E+00
 cg2d: Sum(rhs),rhsMax =  -9.54974623823546E-08  9.07661692347198E+00
 cg2d: Sum(rhs),rhsMax =  -9.55527141854873E-08  9.07139547821490E+00
 cg2d: Sum(rhs),rhsMax =  -9.56078878289190E-08  9.06616045270155E+00
 cg2d: Sum(rhs),rhsMax =  -9.56632462134621E-08  9.06090673305150E+00
 cg2d: Sum(rhs),rhsMax =  -9.57190593453561E-08  9.05562917574046E+00
 cg2d: Sum(rhs),rhsMax =  -9.57753982788745E-08  9.05032276301453E+00
 cg2d: Sum(rhs),rhsMax =  -9.58323127520089E-08  9.04498274779792E+00
 cg2d: Sum(rhs),rhsMax =  -9.58890566948867E-08  9.03960479010611E+00
 cg2d: Sum(rhs),rhsMax =  -9.59469090844323E-08  9.03418508103277E+00
 cg2d: Sum(rhs),rhsMax =  -9.60046975251316E-08  9.02872044807494E+00
 cg2d: Sum(rhs),rhsMax =  -9.60634949365158E-08  9.02320843719522E+00
 cg2d: Sum(rhs),rhsMax =  -9.61234505325592E-08  9.01764736350553E+00
 cg2d: Sum(rhs),rhsMax =  -9.61829158541150E-08  9.01203632711249E+00
 cg2d: Sum(rhs),rhsMax =  -9.62436175200310E-08  9.00637519234014E+00
 cg2d: Sum(rhs),rhsMax =  -9.63047241953063E-08  9.00066454100738E+00
 cg2d: Sum(rhs),rhsMax =  -9.63663566722062E-08  8.99490560644289E+00
 cg2d: Sum(rhs),rhsMax =  -9.64286215321408E-08  8.98910019830229E+00
 cg2d: Sum(rhs),rhsMax =  -9.64914832479735E-08  8.98325060608421E+00
 cg2d: Sum(rhs),rhsMax =  -9.65549631359863E-08  8.97735949860674E+00
 cg2d: Sum(rhs),rhsMax =  -9.66191180395981E-08  8.97142982445055E+00
 cg2d: Sum(rhs),rhsMax =  -9.66832942594920E-08  8.96546471599943E+00
 cg2d: Sum(rhs),rhsMax =  -9.67482520763951E-08  8.95946740124540E+00
 cg2d: Sum(rhs),rhsMax =  -9.68132098932983E-08  8.95344112713886E+00
 cg2d: Sum(rhs),rhsMax =  -9.68790274669118E-08  8.94738909112794E+00
 cg2d: Sum(rhs),rhsMax =  -9.69447810916790E-08  8.94131438207753E+00
 cg2d: Sum(rhs),rhsMax =  -9.70111884157632E-08  8.93521991327319E+00
 cg2d: Sum(rhs),rhsMax =  -9.70773115227530E-08  8.92910833888471E+00
 cg2d: Sum(rhs),rhsMax =  -9.71445075492738E-08  8.92298199747039E+00
 cg2d: Sum(rhs),rhsMax =  -9.72113554098541E-08  8.91684290726808E+00
 cg2d: Sum(rhs),rhsMax =  -9.72787574937684E-08  8.91069264633776E+00
 cg2d: Sum(rhs),rhsMax =  -9.73459535202892E-08  8.90453228797114E+00
 cg2d: Sum(rhs),rhsMax =  -9.74135971887335E-08  8.89836249714105E+00
 cg2d: Sum(rhs),rhsMax =  -9.74817027099562E-08  8.89218368115518E+00
 cg2d: Sum(rhs),rhsMax =  -9.75496519117769E-08  8.88599608996445E+00
 cg2d: Sum(rhs),rhsMax =  -9.76179350686834E-08  8.87979980032782E+00
 cg2d: Sum(rhs),rhsMax =  -9.76860476953334E-08  8.87359466021019E+00
 cg2d: Sum(rhs),rhsMax =  -9.77549490244201E-08  8.86737992136571E+00
 cg2d: Sum(rhs),rhsMax =  -9.78237792992331E-08  8.86115449881272E+00
 cg2d: Sum(rhs),rhsMax =  -9.78925882577641E-08  8.85491714939279E+00
 cg2d: Sum(rhs),rhsMax =  -9.79620651264668E-08  8.84866650814923E+00
 cg2d: Sum(rhs),rhsMax =  -9.80318830556826E-08  8.84239908862083E+00
 cg2d: Sum(rhs),rhsMax =  -9.81016583523342E-08  8.83611205511795E+00
 EXTERNAL_FIELDS_LOAD, it=   3600510 : Reading new data, i0,i1=    9   10 (prev=    8    9 )
 DIC_FIELDS_LOAD, it=   3600510 : Reading new data, i0,i1=    9   10 (prev=    8    9 )
 cg2d: Sum(rhs),rhsMax =  -9.81721868242857E-08  8.82980306034887E+00
 cg2d: Sum(rhs),rhsMax =  -9.82427721396562E-08  8.82347164349139E+00
 cg2d: Sum(rhs),rhsMax =  -9.83135990395567E-08  8.81711735596894E+00
 cg2d: Sum(rhs),rhsMax =  -9.83851720093298E-08  8.81074020360017E+00
 cg2d: Sum(rhs),rhsMax =  -9.84564962891454E-08  8.80434063629974E+00
 cg2d: Sum(rhs),rhsMax =  -9.85286376931072E-08  8.79791959804717E+00
 cg2d: Sum(rhs),rhsMax =  -9.86011414738641E-08  8.79147850051498E+00
 cg2d: Sum(rhs),rhsMax =  -9.86734960406466E-08  8.78501923806664E+00
 cg2d: Sum(rhs),rhsMax =  -9.87464900958912E-08  8.77854412431977E+00
 cg2d: Sum(rhs),rhsMax =  -9.88197470519481E-08  8.77205585109022E+00
 cg2d: Sum(rhs),rhsMax =  -9.88934729662105E-08  8.76555740298602E+00
 cg2d: Sum(rhs),rhsMax =  -9.89669146633787E-08  8.75905198910442E+00
 cg2d: Sum(rhs),rhsMax =  -9.90407258427695E-08  8.75254295465281E+00
 cg2d: Sum(rhs),rhsMax =  -9.91145014950234E-08  8.74603368964057E+00
 cg2d: Sum(rhs),rhsMax =  -9.91886466295000E-08  8.73952755244439E+00
 cg2d: Sum(rhs),rhsMax =  -9.92623157003436E-08  8.73302782624689E+00
 cg2d: Sum(rhs),rhsMax =  -9.93363400425551E-08  8.72653766294564E+00
 cg2d: Sum(rhs),rhsMax =  -9.94104141227581E-08  8.72006002219781E+00
 cg2d: Sum(rhs),rhsMax =  -9.94844668866790E-08  8.71359759621992E+00
 cg2d: Sum(rhs),rhsMax =  -9.95583775420528E-08  8.70715278372291E+00
 cg2d: Sum(rhs),rhsMax =  -9.96322597757171E-08  8.70072771032166E+00
 cg2d: Sum(rhs),rhsMax =  -9.97059714791249E-08  8.69432422374462E+00
 cg2d: Sum(rhs),rhsMax =  -9.97792923840279E-08  8.68794392220557E+00
 cg2d: Sum(rhs),rhsMax =  -9.98527127649140E-08  8.68159287495532E+00
 cg2d: Sum(rhs),rhsMax =  -9.99256144496030E-08  8.67527594836007E+00
 cg2d: Sum(rhs),rhsMax =  -9.99983740257449E-08  8.66899648662334E+00
 cg2d: Sum(rhs),rhsMax =  -1.00070764119664E-07  8.66275674813775E+00
 cg2d: Sum(rhs),rhsMax =  -1.00142791836788E-07  8.65655808426570E+00
 cg2d: Sum(rhs),rhsMax =  -1.00214123222031E-07  8.65040095427649E+00
 cg2d: Sum(rhs),rhsMax =  -1.00285419080137E-07  8.64428511771589E+00
 cg2d: Sum(rhs),rhsMax =  -1.00356203347474E-07  8.63820779072895E+00
 cg2d: Sum(rhs),rhsMax =  -1.00426881033400E-07  8.63216610266613E+00
 cg2d: Sum(rhs),rhsMax =  -1.00497182131676E-07  8.62615664857018E+00
 cg2d: Sum(rhs),rhsMax =  -1.00566929006618E-07  8.62017549344574E+00
 cg2d: Sum(rhs),rhsMax =  -1.00636839306389E-07  8.61421824973427E+00
 cg2d: Sum(rhs),rhsMax =  -1.00706515127058E-07  8.60828014305759E+00
 cg2d: Sum(rhs),rhsMax =  -1.00776318845419E-07  8.60235619466164E+00
 cg2d: Sum(rhs),rhsMax =  -1.00845916506387E-07  8.59644141396147E+00
 cg2d: Sum(rhs),rhsMax =  -1.00915485745645E-07  8.59053104903554E+00
 cg2d: Sum(rhs),rhsMax =  -1.00985261042297E-07  8.58462072248315E+00
 cg2d: Sum(rhs),rhsMax =  -1.01055491086299E-07  8.57870663714626E+00
 cg2d: Sum(rhs),rhsMax =  -1.01125422702353E-07  8.57278566865890E+00
 cg2d: Sum(rhs),rhsMax =  -1.01195716695202E-07  8.56685532083521E+00
 cg2d: Sum(rhs),rhsMax =  -1.01266216745444E-07  8.56091374139585E+00
 cg2d: Sum(rhs),rhsMax =  -1.01337192859319E-07  8.55495975914983E+00
 cg2d: Sum(rhs),rhsMax =  -1.01408346608878E-07  8.54899275863313E+00
 cg2d: Sum(rhs),rhsMax =  -1.01479535885574E-07  8.54301265247851E+00
 cg2d: Sum(rhs),rhsMax =  -1.01551435705005E-07  8.53701978569626E+00
 cg2d: Sum(rhs),rhsMax =  -1.01622724457684E-07  8.53101490472480E+00
 cg2d: Sum(rhs),rhsMax =  -1.01695292187287E-07  8.52499919193590E+00
 cg2d: Sum(rhs),rhsMax =  -1.01767554383514E-07  8.51897431341724E+00
 cg2d: Sum(rhs),rhsMax =  -1.01840242905382E-07  8.51294235247767E+00
 cg2d: Sum(rhs),rhsMax =  -1.01912846162122E-07  8.50690569200869E+00
 cg2d: Sum(rhs),rhsMax =  -1.01985413891725E-07  8.50087005576702E+00
 cg2d: Sum(rhs),rhsMax =  -1.02058450579534E-07  8.49484015017416E+00
 cg2d: Sum(rhs),rhsMax =  -1.02131188839394E-07  8.48882063673028E+00
 cg2d: Sum(rhs),rhsMax =  -1.02203856044980E-07  8.48281607441673E+00
 cg2d: Sum(rhs),rhsMax =  -1.02276672464541E-07  8.47683086082370E+00
 cg2d: Sum(rhs),rhsMax =  -1.02349595465512E-07  8.47086915096995E+00
 cg2d: Sum(rhs),rhsMax =  -1.02421360281824E-07  8.46493476809303E+00
 EXTERNAL_FIELDS_LOAD, it=   3600570 : Reading new data, i0,i1=   10   11 (prev=    9   10 )
 DIC_FIELDS_LOAD, it=   3600570 : Reading new data, i0,i1=   10   11 (prev=    9   10 )
 cg2d: Sum(rhs),rhsMax =  -1.02493515896640E-07  8.45903109783263E+00
 cg2d: Sum(rhs),rhsMax =  -1.02564975179575E-07  8.45319648993583E+00
 cg2d: Sum(rhs),rhsMax =  -1.02634501786270E-07  8.44745634270964E+00
 cg2d: Sum(rhs),rhsMax =  -1.02703893389844E-07  8.44183524325516E+00
 cg2d: Sum(rhs),rhsMax =  -1.02770819410125E-07  8.43635626330932E+00
 cg2d: Sum(rhs),rhsMax =  -1.02836231974379E-07  8.43104036727980E+00
 cg2d: Sum(rhs),rhsMax =  -1.02899214482477E-07  8.42590597581903E+00
 cg2d: Sum(rhs),rhsMax =  -1.02960150627496E-07  8.42096861540595E+00
 cg2d: Sum(rhs),rhsMax =  -1.03018727770632E-07  8.41624063283881E+00
 cg2d: Sum(rhs),rhsMax =  -1.03074462742825E-07  8.41173099284368E+00
 cg2d: Sum(rhs),rhsMax =  -1.03127582917750E-07  8.40744522364360E+00
 cg2d: Sum(rhs),rhsMax =  -1.03177704602331E-07  8.40338548638234E+00
 cg2d: Sum(rhs),rhsMax =  -1.03225289649345E-07  8.39955071057647E+00
 cg2d: Sum(rhs),rhsMax =  -1.03270444640202E-07  8.39593686353065E+00
 cg2d: Sum(rhs),rhsMax =  -1.03312800092681E-07  8.39253726007720E+00
 cg2d: Sum(rhs),rhsMax =  -1.03352554958747E-07  8.38934286490718E+00
 cg2d: Sum(rhs),rhsMax =  -1.03389886874083E-07  8.38634267692018E+00
 cg2d: Sum(rhs),rhsMax =  -1.03425186637196E-07  8.38352418466840E+00
 cg2d: Sum(rhs),rhsMax =  -1.03458575040349E-07  8.38087384792736E+00
 cg2d: Sum(rhs),rhsMax =  -1.03489654179612E-07  8.37837764295235E+00
 cg2d: Sum(rhs),rhsMax =  -1.03519347760539E-07  8.37602165023152E+00
 cg2d: Sum(rhs),rhsMax =  -1.03547364460610E-07  8.37379265495454E+00
 cg2d: Sum(rhs),rhsMax =  -1.03573896126363E-07  8.37167859305842E+00
 cg2d: Sum(rhs),rhsMax =  -1.03599155920620E-07  8.36966841617237E+00
 cg2d: Sum(rhs),rhsMax =  -1.03623357006200E-07  8.36775262363169E+00
 cg2d: Sum(rhs),rhsMax =  -1.03646584648232E-07  8.36592322530019E+00
 cg2d: Sum(rhs),rhsMax =  -1.03668426731929E-07  8.36417370361670E+00
 cg2d: Sum(rhs),rhsMax =  -1.03689806962848E-07  8.36249893566327E+00
 cg2d: Sum(rhs),rhsMax =  -1.03710164012227E-07  8.36089512198643E+00
 cg2d: Sum(rhs),rhsMax =  -1.03729064448999E-07  8.35935972193128E+00
 cg2d: Sum(rhs),rhsMax =  -1.03747986202052E-07  8.35789132052859E+00
 cg2d: Sum(rhs),rhsMax =  -1.03765373182796E-07  8.35648953984663E+00
 cg2d: Sum(rhs),rhsMax =  -1.03782369365035E-07  8.35515503666620E+00
 cg2d: Sum(rhs),rhsMax =  -1.03798733164240E-07  8.35388959337713E+00
 cg2d: Sum(rhs),rhsMax =  -1.03813491136862E-07  8.35269612989214E+00
 cg2d: Sum(rhs),rhsMax =  -1.03827638042731E-07  8.35157865319166E+00
 cg2d: Sum(rhs),rhsMax =  -1.03841280463257E-07  8.35054220321588E+00
 cg2d: Sum(rhs),rhsMax =  -1.03853331268056E-07  8.34959282244478E+00
 cg2d: Sum(rhs),rhsMax =  -1.03864024936229E-07  8.34873757212784E+00
 cg2d: Sum(rhs),rhsMax =  -1.03873794898846E-07  8.34798443944571E+00
 cg2d: Sum(rhs),rhsMax =  -1.03881951929452E-07  8.34734205444848E+00
 cg2d: Sum(rhs),rhsMax =  -1.03888730507151E-07  8.34681927427749E+00
 cg2d: Sum(rhs),rhsMax =  -1.03893782466002E-07  8.34642479662444E+00
 cg2d: Sum(rhs),rhsMax =  -1.03896695691219E-07  8.34616690162161E+00
 cg2d: Sum(rhs),rhsMax =  -1.03898251779810E-07  8.34605328416144E+00
 cg2d: Sum(rhs),rhsMax =  -1.03897747294468E-07  8.34609086201575E+00
 cg2d: Sum(rhs),rhsMax =  -1.03895416714295E-07  8.34628560159372E+00
 cg2d: Sum(rhs),rhsMax =  -1.03891132141598E-07  8.34664238294981E+00
 cg2d: Sum(rhs),rhsMax =  -1.03884730151549E-07  8.34716488141953E+00
 cg2d: Sum(rhs),rhsMax =  -1.03876232060429E-07  8.34785544920597E+00
 cg2d: Sum(rhs),rhsMax =  -1.03865339440290E-07  8.34871504733891E+00
 cg2d: Sum(rhs),rhsMax =  -1.03852393351644E-07  8.34974320296400E+00
 cg2d: Sum(rhs),rhsMax =  -1.03837578535604E-07  8.35093803633076E+00
 cg2d: Sum(rhs),rhsMax =  -1.03820866570459E-07  8.35229628921908E+00
 cg2d: Sum(rhs),rhsMax =  -1.03801575335183E-07  8.35381348895399E+00
 cg2d: Sum(rhs),rhsMax =  -1.03780770643880E-07  8.35548405560547E+00
 cg2d: Sum(rhs),rhsMax =  -1.03758168279455E-07  8.35730145035772E+00
 cg2d: Sum(rhs),rhsMax =  -1.03734052459004E-07  8.35925834161856E+00
 cg2d: Sum(rhs),rhsMax =  -1.03707641585515E-07  8.36134677020027E+00
 cg2d: Sum(rhs),rhsMax =  -1.03680264373907E-07  8.36355833544679E+00
 EXTERNAL_FIELDS_LOAD, it=   3600630 : Reading new data, i0,i1=   11   12 (prev=   10   11 )
 DIC_FIELDS_LOAD, it=   3600630 : Reading new data, i0,i1=   11   12 (prev=   10   11 )
 cg2d: Sum(rhs),rhsMax =  -1.03651167648877E-07  8.36588437297216E+00
 cg2d: Sum(rhs),rhsMax =  -1.03620983793462E-07  8.36829873825493E+00
 cg2d: Sum(rhs),rhsMax =  -1.03590167555012E-07  8.37078098256463E+00
 cg2d: Sum(rhs),rhsMax =  -1.03558832620365E-07  8.37331076990736E+00
 cg2d: Sum(rhs),rhsMax =  -1.03526986094948E-07  8.37586828475342E+00
 cg2d: Sum(rhs),rhsMax =  -1.03494969039275E-07  8.37843651347270E+00
 cg2d: Sum(rhs),rhsMax =  -1.03462959089029E-07  8.38100058596186E+00
 cg2d: Sum(rhs),rhsMax =  -1.03431759157502E-07  8.38354800119352E+00
 cg2d: Sum(rhs),rhsMax =  -1.03400431328282E-07  8.38606907281455E+00
 cg2d: Sum(rhs),rhsMax =  -1.03369536930131E-07  8.38855705740912E+00
 cg2d: Sum(rhs),rhsMax =  -1.03339182544460E-07  8.39100818777902E+00
 cg2d: Sum(rhs),rhsMax =  -1.03309091059600E-07  8.39342162927294E+00
 cg2d: Sum(rhs),rhsMax =  -1.03279326424399E-07  8.39579937673915E+00
 cg2d: Sum(rhs),rhsMax =  -1.03250158645096E-07  8.39814606298476E+00
 cg2d: Sum(rhs),rhsMax =  -1.03221587721691E-07  8.40046867037939E+00
 cg2d: Sum(rhs),rhsMax =  -1.03192640210636E-07  8.40277617859981E+00
 cg2d: Sum(rhs),rhsMax =  -1.03164317977189E-07  8.40507915533000E+00
 cg2d: Sum(rhs),rhsMax =  -1.03135583628955E-07  8.40738929078001E+00
 cg2d: Sum(rhs),rhsMax =  -1.03106465587643E-07  8.40971893982490E+00
 cg2d: Sum(rhs),rhsMax =  -1.03077603341717E-07  8.41208069021930E+00
 cg2d: Sum(rhs),rhsMax =  -1.03047760546815E-07  8.41448664736628E+00
 cg2d: Sum(rhs),rhsMax =  -1.03017328001442E-07  8.41694808963461E+00
 cg2d: Sum(rhs),rhsMax =  -1.02985850958248E-07  8.41947641344255E+00
 cg2d: Sum(rhs),rhsMax =  -1.02953762848301E-07  8.42209465677943E+00
 cg2d: Sum(rhs),rhsMax =  -1.02920779454507E-07  8.42481840011152E+00
 cg2d: Sum(rhs),rhsMax =  -1.02885756803062E-07  8.42766143831664E+00
 cg2d: Sum(rhs),rhsMax =  -1.02849760708068E-07  8.43063562227923E+00
 cg2d: Sum(rhs),rhsMax =  -1.02811505087175E-07  8.43375048923612E+00
 cg2d: Sum(rhs),rhsMax =  -1.02771743115682E-07  8.43701312183894E+00
 cg2d: Sum(rhs),rhsMax =  -1.02730268736195E-07  8.44042805498092E+00
 cg2d: Sum(rhs),rhsMax =  -1.02686364300553E-07  8.44399728026233E+00
 cg2d: Sum(rhs),rhsMax =  -1.02641237731405E-07  8.44772028674299E+00
 cg2d: Sum(rhs),rhsMax =  -1.02594057693750E-07  8.45159419183708E+00
 cg2d: Sum(rhs),rhsMax =  -1.02545079982974E-07  8.45561389463918E+00
 cg2d: Sum(rhs),rhsMax =  -1.02494418285914E-07  8.45977229544668E+00
 cg2d: Sum(rhs),rhsMax =  -1.02442626825905E-07  8.46406043486096E+00
 cg2d: Sum(rhs),rhsMax =  -1.02389186906748E-07  8.46846786249842E+00
 cg2d: Sum(rhs),rhsMax =  -1.02334411167249E-07  8.47298294092153E+00
 cg2d: Sum(rhs),rhsMax =  -1.02278569613645E-07  8.47759310010859E+00
 cg2d: Sum(rhs),rhsMax =  -1.02221783038203E-07  8.48228511495217E+00
 cg2d: Sum(rhs),rhsMax =  -1.02164435134000E-07  8.48704540520819E+00
 cg2d: Sum(rhs),rhsMax =  -1.02106639587873E-07  8.49186038102640E+00
 cg2d: Sum(rhs),rhsMax =  -1.02048161920720E-07  8.49671683330553E+00
 cg2d: Sum(rhs),rhsMax =  -1.01989222400789E-07  8.50160229731839E+00
 cg2d: Sum(rhs),rhsMax =  -1.01930119456028E-07  8.50650541756349E+00
 cg2d: Sum(rhs),rhsMax =  -1.01871734159431E-07  8.51141606286167E+00
 cg2d: Sum(rhs),rhsMax =  -1.01813114383731E-07  8.51632550458549E+00
 cg2d: Sum(rhs),rhsMax =  -1.01754352499484E-07  8.52122658728227E+00
 cg2d: Sum(rhs),rhsMax =  -1.01695938781177E-07  8.52611387363114E+00
 cg2d: Sum(rhs),rhsMax =  -1.01637908755947E-07  8.53098375482528E+00
 cg2d: Sum(rhs),rhsMax =  -1.01580091893538E-07  8.53583450654913E+00
 cg2d: Sum(rhs),rhsMax =  -1.01522516615660E-07  8.54066629803099E+00
 cg2d: Sum(rhs),rhsMax =  -1.01465325030858E-07  8.54548114840508E+00
 cg2d: Sum(rhs),rhsMax =  -1.01408510033707E-07  8.55028281355603E+00
 cg2d: Sum(rhs),rhsMax =  -1.01351844250530E-07  8.55507663782142E+00
 cg2d: Sum(rhs),rhsMax =  -1.01294901355686E-07  8.55986938569464E+00
 cg2d: Sum(rhs),rhsMax =  -1.01238242677937E-07  8.56466907941720E+00
 cg2d: Sum(rhs),rhsMax =  -1.01181711897880E-07  8.56948481849350E+00
 cg2d: Sum(rhs),rhsMax =  -1.01124427942523E-07  8.57432655386490E+00
 cg2d: Sum(rhs),rhsMax =  -1.01066994773191E-07  8.57920482306538E+00
 EXTERNAL_FIELDS_LOAD, it=   3600690 : Reading new data, i0,i1=   12    1 (prev=   11   12 )
 DIC_FIELDS_LOAD, it=   3600690 : Reading new data, i0,i1=   12    1 (prev=   11   12 )
 cg2d: Sum(rhs),rhsMax =  -1.01009099751082E-07  8.58413045456863E+00
 cg2d: Sum(rhs),rhsMax =  -1.00950970249869E-07  8.58908772075261E+00
 cg2d: Sum(rhs),rhsMax =  -1.00892201260194E-07  8.59407113784658E+00
 cg2d: Sum(rhs),rhsMax =  -1.00833979388426E-07  8.59907533504329E+00
 cg2d: Sum(rhs),rhsMax =  -1.00775366718153E-07  8.60409527812640E+00
 cg2d: Sum(rhs),rhsMax =  -1.00716533779632E-07  8.60912639608676E+00
 cg2d: Sum(rhs),rhsMax =  -1.00657807422522E-07  8.61416467727663E+00
 cg2d: Sum(rhs),rhsMax =  -1.00599194752249E-07  8.61920670304104E+00
 cg2d: Sum(rhs),rhsMax =  -1.00540219705181E-07  8.62424959025954E+00
 cg2d: Sum(rhs),rhsMax =  -1.00481713616318E-07  8.62929084710763E+00
 cg2d: Sum(rhs),rhsMax =  -1.00423278581729E-07  8.63432823431656E+00
 cg2d: Sum(rhs),rhsMax =  -1.00365085131671E-07  8.63935967110789E+00
 cg2d: Sum(rhs),rhsMax =  -1.00306984052168E-07  8.64438326330631E+00
 cg2d: Sum(rhs),rhsMax =  -1.00248698231553E-07  8.64939736363611E+00
 cg2d: Sum(rhs),rhsMax =  -1.00191144269957E-07  8.65440069908248E+00
 cg2d: Sum(rhs),rhsMax =  -1.00133568992078E-07  8.65939260929048E+00
 cg2d: Sum(rhs),rhsMax =  -1.00076100295610E-07  8.66437312037654E+00
 cg2d: Sum(rhs),rhsMax =  -1.00019036608501E-07  8.66934290835576E+00
 cg2d: Sum(rhs),rhsMax =  -9.99617597585711E-08  8.67430225124478E+00
 cg2d: Sum(rhs),rhsMax =  -9.99047102823170E-08  8.67925494682890E+00
 cg2d: Sum(rhs),rhsMax =  -9.98482363456787E-08  8.68420608713978E+00
 cg2d: Sum(rhs),rhsMax =  -9.97913716105359E-08  8.68916081980566E+00
 cg2d: Sum(rhs),rhsMax =  -9.97343434505638E-08  8.69412416784580E+00
 cg2d: Sum(rhs),rhsMax =  -9.96773295014464E-08  8.69910085245627E+00
 cg2d: Sum(rhs),rhsMax =  -9.96202871306195E-08  8.70409517445086E+00
 cg2d: Sum(rhs),rhsMax =  -9.95629250155616E-08  8.70911095741398E+00
 cg2d: Sum(rhs),rhsMax =  -9.95059110664442E-08  8.71415148969223E+00
 cg2d: Sum(rhs),rhsMax =  -9.94480160443345E-08  8.71921930590513E+00
 cg2d: Sum(rhs),rhsMax =  -9.93902702361993E-08  8.72431607432102E+00
 cg2d: Sum(rhs),rhsMax =  -9.93317215147727E-08  8.72944261226047E+00
 cg2d: Sum(rhs),rhsMax =  -9.92735280647139E-08  8.73459893266904E+00
 cg2d: Sum(rhs),rhsMax =  -9.92147448641845E-08  8.73978430818157E+00
 cg2d: Sum(rhs),rhsMax =  -9.91560966667748E-08  8.74499735837366E+00
 cg2d: Sum(rhs),rhsMax =  -9.90966526615011E-08  8.75023614706347E+00
 cg2d: Sum(rhs),rhsMax =  -9.90366970654577E-08  8.75549829188909E+00
 cg2d: Sum(rhs),rhsMax =  -9.89772743764661E-08  8.76078107848702E+00
 cg2d: Sum(rhs),rhsMax =  -9.89177024735000E-08  8.76608155580086E+00
 cg2d: Sum(rhs),rhsMax =  -9.88579742511320E-08  8.77139664107964E+00
 cg2d: Sum(rhs),rhsMax =  -9.87977060162848E-08  8.77672320795606E+00
 cg2d: Sum(rhs),rhsMax =  -9.87382264838743E-08  8.78205816635757E+00
(PID.TID 0000.0001) Did not write pickup because writePickupAtEnd = FALSE
 DIC_SURFFORCING_INIT, it=   3600000 : Reading new data, i0,i1=   12    1
 QQ: pCO2 approximation method
 QQ first guess pH 8.2869849781645275,  7.129213793781922,  34.1535348423009,  2.0282,  5.43799999999999991E-4,  8.08490416966378689E-3,  2.3086000000000002
(PID.TID 0000.0001) // =======================================================
(PID.TID 0000.0001) // Model current state
(PID.TID 0000.0001) // =======================================================
(PID.TID 0000.0001) 
 EXTERNAL_FIELDS_LOAD, it=   3600000 : Reading new data, i0,i1=   12    1 (prev=   12    0 )
 DIC_FIELDS_LOAD, it=   3600000 : Reading new data, i0,i1=   12    1 (prev=   12    0 )
 cg2d: Sum(rhs),rhsMax =  -9.92433868418630E-08  8.73439671821315E+00
 cg2d: Sum(rhs),rhsMax =  -9.91844260056496E-08  8.73957958587058E+00
 cg2d: Sum(rhs),rhsMax =  -9.91252449011881E-08  8.74478969091806E+00
 cg2d: Sum(rhs),rhsMax =  -9.90665185440776E-08  8.75002495477880E+00
 cg2d: Sum(rhs),rhsMax =  -9.90068542705558E-08  8.75528284057604E+00
 cg2d: Sum(rhs),rhsMax =  -9.89473534218632E-08  8.76056047500076E+00
 cg2d: Sum(rhs),rhsMax =  -9.88878241514612E-08  8.76585475900637E+00
 cg2d: Sum(rhs),rhsMax =  -9.88279893476829E-08  8.77116249138180E+00
 cg2d: Sum(rhs),rhsMax =  -9.87682469144602E-08  8.77648047471154E+00
 cg2d: Sum(rhs),rhsMax =  -9.87087602766223E-08  8.78180560756084E+00
 cg2d: Sum(rhs),rhsMax =  -9.86489112619893E-08  8.78713494778165E+00
 cg2d: Sum(rhs),rhsMax =  -9.85891404070571E-08  8.79246575399440E+00
 cg2d: Sum(rhs),rhsMax =  -9.85293340249882E-08  8.79779549299699E+00
 cg2d: Sum(rhs),rhsMax =  -9.84700747608258E-08  8.80312181092759E+00
 cg2d: Sum(rhs),rhsMax =  -9.84108581292276E-08  8.80844249631459E+00
 cg2d: Sum(rhs),rhsMax =  -9.83516486030567E-08  8.81375547068360E+00
 cg2d: Sum(rhs),rhsMax =  -9.82926522397065E-08  8.81905885446822E+00
 cg2d: Sum(rhs),rhsMax =  -9.82337553523394E-08  8.82435106608147E+00
 cg2d: Sum(rhs),rhsMax =  -9.81751568929212E-08  8.82963093738125E+00
 cg2d: Sum(rhs),rhsMax =  -9.81166650149135E-08  8.83489782452132E+00
 cg2d: Sum(rhs),rhsMax =  -9.80585213028462E-08  8.84015168145881E+00
 cg2d: Sum(rhs),rhsMax =  -9.80007470730015E-08  8.84539306572338E+00
 cg2d: Sum(rhs),rhsMax =  -9.79429586323022E-08  8.85062306296846E+00
 cg2d: Sum(rhs),rhsMax =  -9.78853904598509E-08  8.85584316140559E+00
 cg2d: Sum(rhs),rhsMax =  -9.78280425556477E-08  8.86105508303604E+00
 cg2d: Sum(rhs),rhsMax =  -9.77709291305473E-08  8.86626061391844E+00
 cg2d: Sum(rhs),rhsMax =  -9.77132472712583E-08  8.87146147123075E+00
 cg2d: Sum(rhs),rhsMax =  -9.76563327981239E-08  8.87665923110881E+00
 cg2d: Sum(rhs),rhsMax =  -9.75990843699037E-08  8.88185530584736E+00
 cg2d: Sum(rhs),rhsMax =  -9.75420704207863E-08  8.88705095973601E+00
 EXTERNAL_FIELDS_LOAD, it=   3600030 : Reading new data, i0,i1=    1    2 (prev=   12    1 )
 DIC_FIELDS_LOAD, it=   3600030 : Reading new data, i0,i1=    1    2 (prev=   12    1 )
 cg2d: Sum(rhs),rhsMax =  -9.74853406887632E-08  8.89224735691429E+00
 cg2d: Sum(rhs),rhsMax =  -9.74287814869967E-08  8.89742706375180E+00
 cg2d: Sum(rhs),rhsMax =  -9.73723857100595E-08  8.90258000132907E+00
 cg2d: Sum(rhs),rhsMax =  -9.73164659967551E-08  8.90769672951691E+00
 cg2d: Sum(rhs),rhsMax =  -9.72612284044772E-08  8.91276878246959E+00
 cg2d: Sum(rhs),rhsMax =  -9.72070637317302E-08  8.91778889429735E+00
 cg2d: Sum(rhs),rhsMax =  -9.71530482729577E-08  8.92275113682099E+00
 cg2d: Sum(rhs),rhsMax =  -9.70993241367069E-08  8.92765100404361E+00
 cg2d: Sum(rhs),rhsMax =  -9.70471916161841E-08  8.93248545016401E+00
 cg2d: Sum(rhs),rhsMax =  -9.69955280538670E-08  8.93725287491615E+00
 cg2d: Sum(rhs),rhsMax =  -9.69441273923621E-08  8.94195305183593E+00
 cg2d: Sum(rhs),rhsMax =  -9.68941833434656E-08  8.94658701582531E+00
 cg2d: Sum(rhs),rhsMax =  -9.68450208915783E-08  8.95115692214719E+00
 cg2d: Sum(rhs),rhsMax =  -9.67962705544778E-08  8.95566589123099E+00
 cg2d: Sum(rhs),rhsMax =  -9.67482165492584E-08  8.96011786358850E+00
 cg2d: Sum(rhs),rhsMax =  -9.67008020325011E-08  8.96451747891563E+00
 cg2d: Sum(rhs),rhsMax =  -9.66539346336504E-08  8.96886998187158E+00
 cg2d: Sum(rhs),rhsMax =  -9.66078843589457E-08  8.97318115409823E+00
 cg2d: Sum(rhs),rhsMax =  -9.65621254067628E-08  8.97745726495199E+00
 cg2d: Sum(rhs),rhsMax =  -9.65159685506478E-08  8.98170502198163E+00
 cg2d: Sum(rhs),rhsMax =  -9.64709272466280E-08  8.98593151889555E+00
 cg2d: Sum(rhs),rhsMax =  -9.64258006774799E-08  8.99014423145949E+00
 cg2d: Sum(rhs),rhsMax =  -9.63806954246138E-08  8.99435085408351E+00
 cg2d: Sum(rhs),rhsMax =  -9.63354978011921E-08  8.99855914272681E+00
 cg2d: Sum(rhs),rhsMax =  -9.62904493917449E-08  9.00277662786875E+00
 cg2d: Sum(rhs),rhsMax =  -9.62449746566563E-08  9.00700998220796E+00
 cg2d: Sum(rhs),rhsMax =  -9.61997557169525E-08  9.01126574761483E+00
 cg2d: Sum(rhs),rhsMax =  -9.61540180810516E-08  9.01555039729210E+00
 cg2d: Sum(rhs),rhsMax =  -9.61077120109621E-08  9.01986971435378E+00
 cg2d: Sum(rhs),rhsMax =  -9.60613775191632E-08  9.02422880815445E+00
 cg2d: Sum(rhs),rhsMax =  -9.60143182737738E-08  9.02863205182447E+00
 cg2d: Sum(rhs),rhsMax =  -9.59668398081703E-08  9.03308295193821E+00
 cg2d: Sum(rhs),rhsMax =  -9.59189492277801E-08  9.03758400719746E+00
 cg2d: Sum(rhs),rhsMax =  -9.58706323217484E-08  9.04213663854453E+00
 cg2d: Sum(rhs),rhsMax =  -9.58215622404168E-08  9.04674109185253E+00
 cg2d: Sum(rhs),rhsMax =  -9.57721724148541E-08  9.05139640217902E+00
 cg2d: Sum(rhs),rhsMax =  -9.57223775799321E-08  9.05610040614876E+00
 cg2d: Sum(rhs),rhsMax =  -9.56718224642827E-08  9.06084979109159E+00
 cg2d: Sum(rhs),rhsMax =  -9.56211039238042E-08  9.06564017672268E+00
 cg2d: Sum(rhs),rhsMax =  -9.55700798499493E-08  9.07046622792088E+00
 cg2d: Sum(rhs),rhsMax =  -9.55189918272481E-08  9.07532179655311E+00
 cg2d: Sum(rhs),rhsMax =  -9.54672145780933E-08  9.08020008054443E+00
 cg2d: Sum(rhs),rhsMax =  -9.54156860188959E-08  9.08509379067778E+00
 cg2d: Sum(rhs),rhsMax =  -9.53640864054250E-08  9.08999532389517E+00
 cg2d: Sum(rhs),rhsMax =  -9.53120391500306E-08  9.09489685062687E+00
 cg2d: Sum(rhs),rhsMax =  -9.52604963799786E-08  9.09979078670731E+00
 cg2d: Sum(rhs),rhsMax =  -9.52091738781746E-08  9.10466952325132E+00
 cg2d: Sum(rhs),rhsMax =  -9.51581995423112E-08  9.10952586151125E+00
 cg2d: Sum(rhs),rhsMax =  -9.51075378452515E-08  9.11435305322486E+00
 cg2d: Sum(rhs),rhsMax =  -9.50568974644739E-08  9.11914489544444E+00
 cg2d: Sum(rhs),rhsMax =  -9.50070173644235E-08  9.12389583482653E+00
 cg2d: Sum(rhs),rhsMax =  -9.49582670273230E-08  9.12860106773695E+00
 cg2d: Sum(rhs),rhsMax =  -9.49094669522310E-08  9.13325671324743E+00
 cg2d: Sum(rhs),rhsMax =  -9.48612637330370E-08  9.13785989332165E+00
 cg2d: Sum(rhs),rhsMax =  -9.48139060596986E-08  9.14240888612431E+00
 cg2d: Sum(rhs),rhsMax =  -9.47671381368309E-08  9.14690322805975E+00
 cg2d: Sum(rhs),rhsMax =  -9.47210025969980E-08  9.15134376400067E+00
 cg2d: Sum(rhs),rhsMax =  -9.46753857533622E-08  9.15573262291172E+00
 cg2d: Sum(rhs),rhsMax =  -9.46305078741716E-08  9.16007311317651E+00
 cg2d: Sum(rhs),rhsMax =  -9.45855020972886E-08  9.16436954661381E+00
 EXTERNAL_FIELDS_LOAD, it=   3600090 : Reading new data, i0,i1=    2    3 (prev=    1    2 )
 DIC_FIELDS_LOAD, it=   3600090 : Reading new data, i0,i1=    2    3 (prev=    1    2 )
 cg2d: Sum(rhs),rhsMax =  -9.45416047670733E-08  9.16862700792054E+00
 cg2d: Sum(rhs),rhsMax =  -9.44977784911316E-08  9.17286965792043E+00
 cg2d: Sum(rhs),rhsMax =  -9.44538882663437E-08  9.17711460232796E+00
 cg2d: Sum(rhs),rhsMax =  -9.44097777733077E-08  9.18137827264839E+00
 cg2d: Sum(rhs),rhsMax =  -9.43655606988614E-08  9.18567586102450E+00
 cg2d: Sum(rhs),rhsMax =  -9.43208533499273E-08  9.19002086507332E+00
 cg2d: Sum(rhs),rhsMax =  -9.42755065125311E-08  9.19442473147613E+00
 cg2d: Sum(rhs),rhsMax =  -9.42294988703907E-08  9.19889660310093E+00
 cg2d: Sum(rhs),rhsMax =  -9.41831217460276E-08  9.20344317156002E+00
 cg2d: Sum(rhs),rhsMax =  -9.41357711781166E-08  9.20806863385625E+00
 cg2d: Sum(rhs),rhsMax =  -9.40875679589226E-08  9.21277472508850E+00
 cg2d: Sum(rhs),rhsMax =  -9.40387323566938E-08  9.21756082935263E+00
 cg2d: Sum(rhs),rhsMax =  -9.39891506845925E-08  9.22242415169496E+00
 cg2d: Sum(rhs),rhsMax =  -9.39387589937724E-08  9.22735992735964E+00
 cg2d: Sum(rhs),rhsMax =  -9.38874578082505E-08  9.23236166048178E+00
 cg2d: Sum(rhs),rhsMax =  -9.38360713576003E-08  9.23742136926884E+00
 cg2d: Sum(rhs),rhsMax =  -9.37847204340869E-08  9.24252982829311E+00
 cg2d: Sum(rhs),rhsMax =  -9.37326518624104E-08  9.24767682825910E+00
 cg2d: Sum(rhs),rhsMax =  -9.36799651185538E-08  9.25285135651627E+00
 cg2d: Sum(rhs),rhsMax =  -9.36278468088858E-08  9.25804181556396E+00
 cg2d: Sum(rhs),rhsMax =  -9.35753803332773E-08  9.26323624437734E+00
 cg2d: Sum(rhs),rhsMax =  -9.35233543941649E-08  9.26842252954541E+00
 cg2d: Sum(rhs),rhsMax =  -9.34712076627875E-08  9.27358855590945E+00
 cg2d: Sum(rhs),rhsMax =  -9.34198851609835E-08  9.27872221865362E+00
 cg2d: Sum(rhs),rhsMax =  -9.33687331894362E-08  9.28381269175841E+00
 cg2d: Sum(rhs),rhsMax =  -9.33183130769066E-08  9.28884990364347E+00
 cg2d: Sum(rhs),rhsMax =  -9.32684542931383E-08  9.29382460831193E+00
 cg2d: Sum(rhs),rhsMax =  -9.32194410552256E-08  9.29872876125425E+00
 cg2d: Sum(rhs),rhsMax =  -9.31711383600486E-08  9.30355578941157E+00
 cg2d: Sum(rhs),rhsMax =  -9.31240364820951E-08  9.30830071441787E+00
 cg2d: Sum(rhs),rhsMax =  -9.30773893514925E-08  9.31296016039586E+00
 cg2d: Sum(rhs),rhsMax =  -9.30318719838397E-08  9.31753230345820E+00
 cg2d: Sum(rhs),rhsMax =  -9.29872783217434E-08  9.32201677457960E+00
 cg2d: Sum(rhs),rhsMax =  -9.29437931063148E-08  9.32641453687162E+00
 cg2d: Sum(rhs),rhsMax =  -9.29007910599466E-08  9.33072777407330E+00
 cg2d: Sum(rhs),rhsMax =  -9.28590253579387E-08  9.33495977832897E+00
 cg2d: Sum(rhs),rhsMax =  -9.28177001924269E-08  9.33911483571782E+00
 cg2d: Sum(rhs),rhsMax =  -9.27770358316593E-08  9.34319809772528E+00
 cg2d: Sum(rhs),rhsMax =  -9.27373591252945E-08  9.34721542637213E+00
 cg2d: Sum(rhs),rhsMax =  -9.26982295368362E-08  9.35117321728378E+00
 cg2d: Sum(rhs),rhsMax =  -9.26594978523099E-08  9.35507820898651E+00
 cg2d: Sum(rhs),rhsMax =  -9.26212777585533E-08  9.35893728101038E+00
 cg2d: Sum(rhs),rhsMax =  -9.25836900478316E-08  9.36275724876052E+00
 cg2d: Sum(rhs),rhsMax =  -9.25467347201447E-08  9.36654466497940E+00
 cg2d: Sum(rhs),rhsMax =  -9.25093388559617E-08  9.37030563739009E+00
 cg2d: Sum(rhs),rhsMax =  -9.24723693174201E-08  9.37404566529748E+00
 cg2d: Sum(rhs),rhsMax =  -9.24358261045199E-08  9.37776950669782E+00
 cg2d: Sum(rhs),rhsMax =  -9.23998015878169E-08  9.38148107939576E+00
 cg2d: Sum(rhs),rhsMax =  -9.23633649563271E-08  9.38518340080342E+00
 cg2d: Sum(rhs),rhsMax =  -9.23271628039402E-08  9.38887856431341E+00
 cg2d: Sum(rhs),rhsMax =  -9.22907545941598E-08  9.39256775253961E+00
 cg2d: Sum(rhs),rhsMax =  -9.22549361348501E-08  9.39625127829926E+00
 cg2d: Sum(rhs),rhsMax =  -9.22186487173349E-08  9.39992865313115E+00
 cg2d: Sum(rhs),rhsMax =  -9.21831713185384E-08  9.40359867110262E+00
 cg2d: Sum(rhs),rhsMax =  -9.21473457538013E-08  9.40725949891390E+00
 cg2d: Sum(rhs),rhsMax =  -9.21119038821416E-08  9.41090875978471E+00
 cg2d: Sum(rhs),rhsMax =  -9.20763412182168E-08  9.41454361858659E+00
 cg2d: Sum(rhs),rhsMax =  -9.20410343496769E-08  9.41816086827301E+00
 cg2d: Sum(rhs),rhsMax =  -9.20060685416502E-08  9.42175701532902E+00
 cg2d: Sum(rhs),rhsMax =  -9.19711879987517E-08  9.42532836100955E+00
 EXTERNAL_FIELDS_LOAD, it=   3600150 : Reading new data, i0,i1=    3    4 (prev=    2    3 )
 DIC_FIELDS_LOAD, it=   3600150 : Reading new data, i0,i1=    3    4 (prev=    2    3 )
 cg2d: Sum(rhs),rhsMax =  -9.19367622032041E-08  9.42887108055882E+00
 cg2d: Sum(rhs),rhsMax =  -9.19030327395376E-08  9.43235832256638E+00
 cg2d: Sum(rhs),rhsMax =  -9.18696727580937E-08  9.43577294710938E+00
 cg2d: Sum(rhs),rhsMax =  -9.18375349101552E-08  9.43909901719340E+00
 cg2d: Sum(rhs),rhsMax =  -9.18056457521743E-08  9.44232226351574E+00
 cg2d: Sum(rhs),rhsMax =  -9.17754618967592E-08  9.44543045713848E+00
 cg2d: Sum(rhs),rhsMax =  -9.17468696570722E-08  9.44841368652191E+00
 cg2d: Sum(rhs),rhsMax =  -9.17188671678559E-08  9.45126453300903E+00
 cg2d: Sum(rhs),rhsMax =  -9.16929749905648E-08  9.45397814472091E+00
 cg2d: Sum(rhs),rhsMax =  -9.16680278351123E-08  9.45655223330268E+00
 cg2d: Sum(rhs),rhsMax =  -9.16445941356869E-08  9.45898700078271E+00
 cg2d: Sum(rhs),rhsMax =  -9.16223754643397E-08  9.46128500172268E+00
 cg2d: Sum(rhs),rhsMax =  -9.16011231311131E-08  9.46345095767279E+00
 cg2d: Sum(rhs),rhsMax =  -9.15811568802383E-08  9.46549153513779E+00
 cg2d: Sum(rhs),rhsMax =  -9.15625619768434E-08  9.46741508859273E+00
 cg2d: Sum(rhs),rhsMax =  -9.15451252581079E-08  9.46923137659912E+00
 cg2d: Sum(rhs),rhsMax =  -9.15285980340741E-08  9.47095124324780E+00
 cg2d: Sum(rhs),rhsMax =  -9.15126108225195E-08  9.47258633929544E+00
 cg2d: Sum(rhs),rhsMax =  -9.14974762622478E-08  9.47414881667898E+00
 cg2d: Sum(rhs),rhsMax =  -9.14831588261222E-08  9.47565102854520E+00
 cg2d: Sum(rhs),rhsMax =  -9.14691185016636E-08  9.47710524161440E+00
 cg2d: Sum(rhs),rhsMax =  -9.14552913400257E-08  9.47852337330871E+00
 cg2d: Sum(rhs),rhsMax =  -9.14417910280463E-08  9.47991675839448E+00
 cg2d: Sum(rhs),rhsMax =  -9.14288023068366E-08  9.48129594936036E+00
 cg2d: Sum(rhs),rhsMax =  -9.14153162057119E-08  9.48267055268677E+00
 cg2d: Sum(rhs),rhsMax =  -9.14016951014673E-08  9.48404910672501E+00
 cg2d: Sum(rhs),rhsMax =  -9.13883866360266E-08  9.48543898881096E+00
 cg2d: Sum(rhs),rhsMax =  -9.13749147457565E-08  9.48684634838855E+00
 cg2d: Sum(rhs),rhsMax =  -9.13611231112554E-08  9.48827608016959E+00
 cg2d: Sum(rhs),rhsMax =  -9.13465854068818E-08  9.48973182637241E+00
 cg2d: Sum(rhs),rhsMax =  -9.13324456064402E-08  9.49121598932757E+00
 cg2d: Sum(rhs),rhsMax =  -9.13176805283911E-08  9.49272976482376E+00
 cg2d: Sum(rhs),rhsMax =  -9.13029793991882E-08  9.49427318407705E+00
 cg2d: Sum(rhs),rhsMax =  -9.12876600978052E-08  9.49584517202971E+00
 cg2d: Sum(rhs),rhsMax =  -9.12722768475760E-08  9.49744362566448E+00
 cg2d: Sum(rhs),rhsMax =  -9.12563962174318E-08  9.49906550905340E+00
 cg2d: Sum(rhs),rhsMax =  -9.12406292741252E-08  9.50070696299551E+00
 cg2d: Sum(rhs),rhsMax =  -9.12245567974423E-08  9.50236342680402E+00
 cg2d: Sum(rhs),rhsMax =  -9.12086122184519E-08  9.50402976802920E+00
 cg2d: Sum(rhs),rhsMax =  -9.11920636781360E-08  9.50570042893596E+00
 cg2d: Sum(rhs),rhsMax =  -9.11760835720088E-08  9.50736956748404E+00
 cg2d: Sum(rhs),rhsMax =  -9.11599897790438E-08  9.50903122489705E+00
 cg2d: Sum(rhs),rhsMax =  -9.11439812512072E-08  9.51067944299842E+00
 cg2d: Sum(rhs),rhsMax =  -9.11286619498242E-08  9.51230836255520E+00
 cg2d: Sum(rhs),rhsMax =  -9.11128452685261E-08  9.51391232343393E+00
 cg2d: Sum(rhs),rhsMax =  -9.10978172896648E-08  9.51548598638282E+00
 cg2d: Sum(rhs),rhsMax =  -9.10825903588375E-08  9.51702443978652E+00
 cg2d: Sum(rhs),rhsMax =  -9.10679744947629E-08  9.51852327194360E+00
 cg2d: Sum(rhs),rhsMax =  -9.10538062726118E-08  9.51997861079381E+00
 cg2d: Sum(rhs),rhsMax =  -9.10403272769145E-08  9.52138713289450E+00
 cg2d: Sum(rhs),rhsMax =  -9.10271680254482E-08  9.52274605554116E+00
 cg2d: Sum(rhs),rhsMax =  -9.10143498344951E-08  9.52405313717331E+00
 cg2d: Sum(rhs),rhsMax =  -9.10022919242692E-08  9.52530666028232E+00
 cg2d: Sum(rhs),rhsMax =  -9.09905324419924E-08  9.52650541109617E+00
 cg2d: Sum(rhs),rhsMax =  -9.09794692915966E-08  9.52764864727963E+00
 cg2d: Sum(rhs),rhsMax =  -9.09689816808168E-08  9.52873605079492E+00
 cg2d: Sum(rhs),rhsMax =  -9.09588422359775E-08  9.52976767849440E+00
 cg2d: Sum(rhs),rhsMax =  -9.09493280687457E-08  9.53074391639987E+00
 cg2d: Sum(rhs),rhsMax =  -9.09404391791213E-08  9.53166530103624E+00
 cg2d: Sum(rhs),rhsMax =  -9.09316284491979E-08  9.53253252588939E+00
 EXTERNAL_FIELDS_LOAD, it=   3600210 : Reading new data, i0,i1=    4    5 (prev=    3    4 )
 DIC_FIELDS_LOAD, it=   3600210 : Reading new data, i0,i1=    4    5 (prev=    3    4 )
 cg2d: Sum(rhs),rhsMax =  -9.09236845814121E-08  9.53334634295211E+00
 cg2d: Sum(rhs),rhsMax =  -9.09162238826866E-08  9.53412016630968E+00
 cg2d: Sum(rhs),rhsMax =  -9.09088555545168E-08  9.53486144691540E+00
 cg2d: Sum(rhs),rhsMax =  -9.09020556605356E-08  9.53557668814411E+00
 cg2d: Sum(rhs),rhsMax =  -9.08950781308704E-08  9.53626990934916E+00
 cg2d: Sum(rhs),rhsMax =  -9.08885269268467E-08  9.53694479201801E+00
 cg2d: Sum(rhs),rhsMax =  -9.08819686173956E-08  9.53760402798875E+00
 cg2d: Sum(rhs),rhsMax =  -9.08758792661502E-08  9.53824943192211E+00
 cg2d: Sum(rhs),rhsMax =  -9.08692001644340E-08  9.53888215688552E+00
 cg2d: Sum(rhs),rhsMax =  -9.08633310814366E-08  9.53950304357000E+00
 cg2d: Sum(rhs),rhsMax =  -9.08575117364308E-08  9.54011304176576E+00
 cg2d: Sum(rhs),rhsMax =  -9.08516142317239E-08  9.54071301635899E+00
 cg2d: Sum(rhs),rhsMax =  -9.08458943627011E-08  9.54130322912294E+00
 cg2d: Sum(rhs),rhsMax =  -9.08400252797037E-08  9.54188272003942E+00
 cg2d: Sum(rhs),rhsMax =  -9.08349306882883E-08  9.54244934290944E+00
 cg2d: Sum(rhs),rhsMax =  -9.08295305634965E-08  9.54299999628384E+00
 cg2d: Sum(rhs),rhsMax =  -9.08241872821236E-08  9.54353092308816E+00
 cg2d: Sum(rhs),rhsMax =  -9.08189861092978E-08  9.54403796863502E+00
 cg2d: Sum(rhs),rhsMax =  -9.08142894218145E-08  9.54451678452915E+00
 cg2d: Sum(rhs),rhsMax =  -9.08097916862971E-08  9.54496303374895E+00
 cg2d: Sum(rhs),rhsMax =  -9.08056705384297E-08  9.54537256688658E+00
 cg2d: Sum(rhs),rhsMax =  -9.08016417611179E-08  9.54574155534994E+00
 cg2d: Sum(rhs),rhsMax =  -9.07979256226099E-08  9.54606657177462E+00
 cg2d: Sum(rhs),rhsMax =  -9.07952681927782E-08  9.54634467959792E+00
 cg2d: Sum(rhs),rhsMax =  -9.07924189164078E-08  9.54657345840157E+00
 cg2d: Sum(rhs),rhsMax =  -9.07902162339269E-08  9.54675102924543E+00
 cg2d: Sum(rhs),rhsMax =  -9.07886743561903E-08  9.54687605379506E+00
 cg2d: Sum(rhs),rhsMax =  -9.07877648614885E-08  9.54694771403842E+00
 cg2d: Sum(rhs),rhsMax =  -9.07869193156330E-08  9.54696566951997E+00
 cg2d: Sum(rhs),rhsMax =  -9.07865995714019E-08  9.54692999068711E+00
 cg2d: Sum(rhs),rhsMax =  -9.07872106381546E-08  9.54684108541375E+00
 cg2d: Sum(rhs),rhsMax =  -9.07884682987969E-08  9.54669963264824E+00
 cg2d: Sum(rhs),rhsMax =  -9.07898467517043E-08  9.54650651972953E+00
 cg2d: Sum(rhs),rhsMax =  -9.07915449488428E-08  9.54626274758502E+00
 cg2d: Sum(rhs),rhsMax =  -9.07941455352557E-08  9.54596935750525E+00
 cg2d: Sum(rhs),rhsMax =  -9.07970800767544E-08  9.54562738075971E+00
 cg2d: Sum(rhs),rhsMax =  -9.08000501453898E-08  9.54523778248193E+00
 cg2d: Sum(rhs),rhsMax =  -9.08038089164620E-08  9.54480140259877E+00
 cg2d: Sum(rhs),rhsMax =  -9.08078732209106E-08  9.54431888382345E+00
 cg2d: Sum(rhs),rhsMax =  -9.08128896526250E-08  9.54379063440704E+00
 cg2d: Sum(rhs),rhsMax =  -9.08179274006216E-08  9.54321682610369E+00
 cg2d: Sum(rhs),rhsMax =  -9.08231072571652E-08  9.54259741627488E+00
 cg2d: Sum(rhs),rhsMax =  -9.08294239820862E-08  9.54193218180504E+00
 cg2d: Sum(rhs),rhsMax =  -9.08357407070071E-08  9.54122075566689E+00
 cg2d: Sum(rhs),rhsMax =  -9.08426116552619E-08  9.54046266149910E+00
 cg2d: Sum(rhs),rhsMax =  -9.08497668206110E-08  9.53965734943055E+00
 cg2d: Sum(rhs),rhsMax =  -9.08576467395505E-08  9.53880424419014E+00
 cg2d: Sum(rhs),rhsMax =  -9.08659032461401E-08  9.53790282192021E+00
 cg2d: Sum(rhs),rhsMax =  -9.08746713434994E-08  9.53695268180845E+00
 cg2d: Sum(rhs),rhsMax =  -9.08840078750472E-08  9.53595362230667E+00
 cg2d: Sum(rhs),rhsMax =  -9.08936215182621E-08  9.53490571447803E+00
 cg2d: Sum(rhs),rhsMax =  -9.09042654484438E-08  9.53380930168364E+00
 cg2d: Sum(rhs),rhsMax =  -9.09145470018302E-08  9.53266493640869E+00
 cg2d: Sum(rhs),rhsMax =  -9.09259227910297E-08  9.53147332889492E+00
 cg2d: Sum(rhs),rhsMax =  -9.09384141323244E-08  9.53023537646442E+00
 cg2d: Sum(rhs),rhsMax =  -9.09505217805417E-08  9.52895220993865E+00
 cg2d: Sum(rhs),rhsMax =  -9.09629278567081E-08  9.52762520262973E+00
 cg2d: Sum(rhs),rhsMax =  -9.09757815747980E-08  9.52625594300855E+00
 cg2d: Sum(rhs),rhsMax =  -9.09892747813501E-08  9.52484621149773E+00
 cg2d: Sum(rhs),rhsMax =  -9.10029882561503E-08  9.52339794221070E+00
 EXTERNAL_FIELDS_LOAD, it=   3600270 : Reading new data, i0,i1=    5    6 (prev=    4    5 )
 DIC_FIELDS_LOAD, it=   3600270 : Reading new data, i0,i1=    5    6 (prev=    4    5 )
 cg2d: Sum(rhs),rhsMax =  -9.10169930534721E-08  9.52191318167782E+00
 cg2d: Sum(rhs),rhsMax =  -9.10311257484864E-08  9.52041761022813E+00
 cg2d: Sum(rhs),rhsMax =  -9.10455213443129E-08  9.51892843351038E+00
 cg2d: Sum(rhs),rhsMax =  -9.10593485059508E-08  9.51746258399289E+00
 cg2d: Sum(rhs),rhsMax =  -9.10729625047679E-08  9.51603636817957E+00
 cg2d: Sum(rhs),rhsMax =  -9.10860507019606E-08  9.51466517931999E+00
 cg2d: Sum(rhs),rhsMax =  -9.10986344138109E-08  9.51336322967766E+00
 cg2d: Sum(rhs),rhsMax =  -9.11102233658312E-08  9.51214329321166E+00
 cg2d: Sum(rhs),rhsMax =  -9.11212367782355E-08  9.51101645114812E+00
 cg2d: Sum(rhs),rhsMax =  -9.11308219997409E-08  9.50999185515969E+00
 cg2d: Sum(rhs),rhsMax =  -9.11397606273567E-08  9.50907652378690E+00
 cg2d: Sum(rhs),rhsMax =  -9.11473847509114E-08  9.50827517814543E+00
 cg2d: Sum(rhs),rhsMax =  -9.11540354309182E-08  9.50759014752173E+00
 cg2d: Sum(rhs),rhsMax =  -9.11595421371203E-08  9.50702134377118E+00
 cg2d: Sum(rhs),rhsMax =  -9.11640682943471E-08  9.50656629011210E+00
 cg2d: Sum(rhs),rhsMax =  -9.11673012637948E-08  9.50622019182364E+00
 cg2d: Sum(rhs),rhsMax =  -9.11696744765322E-08  9.50597606771963E+00
 cg2d: Sum(rhs),rhsMax =  -9.11708539774736E-08  9.50582494250500E+00
 cg2d: Sum(rhs),rhsMax =  -9.11716497853376E-08  9.50575608648473E+00
 cg2d: Sum(rhs),rhsMax =  -9.11714224116622E-08  9.50575729587021E+00
 cg2d: Sum(rhs),rhsMax =  -9.11708468720462E-08  9.50581523373235E+00
 cg2d: Sum(rhs),rhsMax =  -9.11699018502077E-08  9.50591575069248E+00
 cg2d: Sum(rhs),rhsMax =  -9.11685589244371E-08  9.50604420974297E+00
 cg2d: Sum(rhs),rhsMax =  -9.11669744141363E-08  9.50618583284504E+00
 cg2d: Sum(rhs),rhsMax =  -9.11656883317846E-08  9.50632606101357E+00
 cg2d: Sum(rhs),rhsMax =  -9.11643525114414E-08  9.50645090757042E+00
 cg2d: Sum(rhs),rhsMax =  -9.11635567035773E-08  9.50654729113363E+00
 cg2d: Sum(rhs),rhsMax =  -9.11632938027651E-08  9.50660334354173E+00
 cg2d: Sum(rhs),rhsMax =  -9.11633009081925E-08  9.50660868062301E+00
 cg2d: Sum(rhs),rhsMax =  -9.11639332912273E-08  9.50655462562515E+00
 cg2d: Sum(rhs),rhsMax =  -9.11649706836215E-08  9.50643436311089E+00
 cg2d: Sum(rhs),rhsMax =  -9.11672302095212E-08  9.50624304674150E+00
 cg2d: Sum(rhs),rhsMax =  -9.11696460548228E-08  9.50597781905916E+00
 cg2d: Sum(rhs),rhsMax =  -9.11727440211507E-08  9.50563777710892E+00
 cg2d: Sum(rhs),rhsMax =  -9.11770854372662E-08  9.50522393135291E+00
 cg2d: Sum(rhs),rhsMax =  -9.11816186999204E-08  9.50473911463816E+00
 cg2d: Sum(rhs),rhsMax =  -9.11870614572763E-08  9.50418773930678E+00
 cg2d: Sum(rhs),rhsMax =  -9.11928168534359E-08  9.50357558691374E+00
 cg2d: Sum(rhs),rhsMax =  -9.11992827923314E-08  9.50290964447458E+00
 cg2d: Sum(rhs),rhsMax =  -9.12065729608003E-08  9.50219791542795E+00
 cg2d: Sum(rhs),rhsMax =  -9.12139270781154E-08  9.50144918276843E+00
 cg2d: Sum(rhs),rhsMax =  -9.12212811954305E-08  9.50067274580360E+00
 cg2d: Sum(rhs),rhsMax =  -9.12293955934729E-08  9.49987815929010E+00
 cg2d: Sum(rhs),rhsMax =  -9.12369131356172E-08  9.49907498366882E+00
 cg2d: Sum(rhs),rhsMax =  -9.12447788437021E-08  9.49827255755378E+00
 cg2d: Sum(rhs),rhsMax =  -9.12528008711888E-08  9.49747978836020E+00
 cg2d: Sum(rhs),rhsMax =  -9.12602686753416E-08  9.49670496341604E+00
 cg2d: Sum(rhs),rhsMax =  -9.12679780640246E-08  9.49595558374171E+00
 cg2d: Sum(rhs),rhsMax =  -9.12747850634332E-08  9.49523821505845E+00
 cg2d: Sum(rhs),rhsMax =  -9.12811941589098E-08  9.49455836839740E+00
 cg2d: Sum(rhs),rhsMax =  -9.12878306280618E-08  9.49392042323925E+00
 cg2d: Sum(rhs),rhsMax =  -9.12937139219139E-08  9.49332754785973E+00
 cg2d: Sum(rhs),rhsMax =  -9.12992632606802E-08  9.49278165465699E+00
 cg2d: Sum(rhs),rhsMax =  -9.13035833605136E-08  9.49228339433203E+00
 cg2d: Sum(rhs),rhsMax =  -9.13086424247922E-08  9.49183218209292E+00
 cg2d: Sum(rhs),rhsMax =  -9.13127422563775E-08  9.49142625728328E+00
 cg2d: Sum(rhs),rhsMax =  -9.13163518134752E-08  9.49106276286301E+00
 cg2d: Sum(rhs),rhsMax =  -9.13194782015125E-08  9.49073783789306E+00
 cg2d: Sum(rhs),rhsMax =  -9.13225406407037E-08  9.49044672400271E+00
 cg2d: Sum(rhs),rhsMax =  -9.13253046519458E-08  9.49018390323782E+00
 EXTERNAL_FIELDS_LOAD, it=   3600330 : Reading new data, i0,i1=    6    7 (prev=    5    6 )
 DIC_FIELDS_LOAD, it=   3600330 : Reading new data, i0,i1=    6    7 (prev=    5    6 )
 cg2d: Sum(rhs),rhsMax =  -9.13276210212643E-08  9.48994325700856E+00
 cg2d: Sum(rhs),rhsMax =  -9.13303352945150E-08  9.48970801758053E+00
 cg2d: Sum(rhs),rhsMax =  -9.13328221940901E-08  9.48946471682098E+00
 cg2d: Sum(rhs),rhsMax =  -9.13353943587936E-08  9.48919980375378E+00
 cg2d: Sum(rhs),rhsMax =  -9.13383644274290E-08  9.48889996251626E+00
 cg2d: Sum(rhs),rhsMax =  -9.13418460868343E-08  9.48855235316500E+00
 cg2d: Sum(rhs),rhsMax =  -9.13461093432488E-08  9.48814487205053E+00
 cg2d: Sum(rhs),rhsMax =  -9.13508344524416E-08  9.48766639266868E+00
 cg2d: Sum(rhs),rhsMax =  -9.13563624749258E-08  9.48710698236420E+00
 cg2d: Sum(rhs),rhsMax =  -9.13624518261713E-08  9.48645808347463E+00
 cg2d: Sum(rhs),rhsMax =  -9.13698130489138E-08  9.48571268422533E+00
 cg2d: Sum(rhs),rhsMax =  -9.13783111400335E-08  9.48486545850383E+00
 cg2d: Sum(rhs),rhsMax =  -9.13876760932908E-08  9.48391285858374E+00
 cg2d: Sum(rhs),rhsMax =  -9.13977800109933E-08  9.48285315351105E+00
 cg2d: Sum(rhs),rhsMax =  -9.14093334358768E-08  9.48168641391458E+00
 cg2d: Sum(rhs),rhsMax =  -9.14215760872139E-08  9.48041445516485E+00
 cg2d: Sum(rhs),rhsMax =  -9.14348703418000E-08  9.47904073781749E+00
 cg2d: Sum(rhs),rhsMax =  -9.14490314585237E-08  9.47757022510765E+00
 cg2d: Sum(rhs),rhsMax =  -9.14641802296501E-08  9.47600920384239E+00
 cg2d: Sum(rhs),rhsMax =  -9.14802384954783E-08  9.47436507523804E+00
 cg2d: Sum(rhs),rhsMax =  -9.14970428311790E-08  9.47264612546539E+00
 cg2d: Sum(rhs),rhsMax =  -9.15143658630768E-08  9.47086128598380E+00
 cg2d: Sum(rhs),rhsMax =  -9.15317244221114E-08  9.46901988541289E+00
 cg2d: Sum(rhs),rhsMax =  -9.15503548526431E-08  9.46713139755286E+00
 cg2d: Sum(rhs),rhsMax =  -9.15688005420634E-08  9.46520519129246E+00
 cg2d: Sum(rhs),rhsMax =  -9.15879354579374E-08  9.46325027783096E+00
 cg2d: Sum(rhs),rhsMax =  -9.16070561629567E-08  9.46127510172983E+00
 cg2d: Sum(rhs),rhsMax =  -9.16269016215665E-08  9.45928736176468E+00
 cg2d: Sum(rhs),rhsMax =  -9.16458375854745E-08  9.45729384446051E+00
 cg2d: Sum(rhs),rhsMax =  -9.16652354021608E-08  9.45530032221759E+00
 cg2d: Sum(rhs),rhsMax =  -9.16847469056847E-08  9.45331147339530E+00
 cg2d: Sum(rhs),rhsMax =  -9.17041660386531E-08  9.45133082537812E+00
 cg2d: Sum(rhs),rhsMax =  -9.17234714847837E-08  9.44936073119909E+00
 cg2d: Sum(rhs),rhsMax =  -9.17423008672813E-08  9.44740238220463E+00
 cg2d: Sum(rhs),rhsMax =  -9.17614002560185E-08  9.44545585645758E+00
 cg2d: Sum(rhs),rhsMax =  -9.17801870059520E-08  9.44352020252140E+00
 cg2d: Sum(rhs),rhsMax =  -9.17989737558855E-08  9.44159355733174E+00
 cg2d: Sum(rhs),rhsMax =  -9.18179097197935E-08  9.43967327626014E+00
 cg2d: Sum(rhs),rhsMax =  -9.18367177860091E-08  9.43775607395104E+00
 cg2d: Sum(rhs),rhsMax =  -9.18552629514124E-08  9.43583817490269E+00
 cg2d: Sum(rhs),rhsMax =  -9.18742912858761E-08  9.43391546318717E+00
 cg2d: Sum(rhs),rhsMax =  -9.18933977800407E-08  9.43198362529795E+00
 cg2d: Sum(rhs),rhsMax =  -9.19123053222393E-08  9.43003828806143E+00
 cg2d: Sum(rhs),rhsMax =  -9.19319091963189E-08  9.42807514245689E+00
 cg2d: Sum(rhs),rhsMax =  -9.19516196518089E-08  9.42609005034801E+00
 cg2d: Sum(rhs),rhsMax =  -9.19711453661876E-08  9.42407914155286E+00
 cg2d: Sum(rhs),rhsMax =  -9.19916374186869E-08  9.42203890101561E+00
 cg2d: Sum(rhs),rhsMax =  -9.20122005254598E-08  9.41996625280574E+00
 cg2d: Sum(rhs),rhsMax =  -9.20328773190704E-08  9.41785862954787E+00
 cg2d: Sum(rhs),rhsMax =  -9.20541722848611E-08  9.41571402403211E+00
 cg2d: Sum(rhs),rhsMax =  -9.20761920042423E-08  9.41353104362712E+00
 cg2d: Sum(rhs),rhsMax =  -9.20975224971698E-08  9.41130897700722E+00
 cg2d: Sum(rhs),rhsMax =  -9.21202243375774E-08  9.40904782014454E+00
 cg2d: Sum(rhs),rhsMax =  -9.21427556477283E-08  9.40674826682519E+00
 cg2d: Sum(rhs),rhsMax =  -9.21658624974953E-08  9.40441167656376E+00
 cg2d: Sum(rhs),rhsMax =  -9.21897651551262E-08  9.40204003109270E+00
 cg2d: Sum(rhs),rhsMax =  -9.22136393910478E-08  9.39963588692061E+00
 cg2d: Sum(rhs),rhsMax =  -9.22377765277815E-08  9.39720232327049E+00
 cg2d: Sum(rhs),rhsMax =  -9.22617147125493E-08  9.39474287623570E+00
 cg2d: Sum(rhs),rhsMax =  -9.22866476571471E-08  9.39226147078604E+00
 EXTERNAL_FIELDS_LOAD, it=   3600390 : Reading new data, i0,i1=    7    8 (prev=    6    7 )
 DIC_FIELDS_LOAD, it=   3600390 : Reading new data, i0,i1=    7    8 (prev=    6    7 )
 cg2d: Sum(rhs),rhsMax =  -9.23120353490958E-08  9.38976233427929E+00
 cg2d: Sum(rhs),rhsMax =  -9.23369185557021E-08  9.38724381347799E+00
 cg2d: Sum(rhs),rhsMax =  -9.23620930848301E-08  9.38470550458213E+00
 cg2d: Sum(rhs),rhsMax =  -9.23878431535741E-08  9.38214640732935E+00
 cg2d: Sum(rhs),rhsMax =  -9.24133303215058E-08  9.37956498127073E+00
 cg2d: Sum(rhs),rhsMax =  -9.24395564538827E-08  9.37695924403383E+00
 cg2d: Sum(rhs),rhsMax =  -9.24659673273709E-08  9.37432689628576E+00
 cg2d: Sum(rhs),rhsMax =  -9.24926268908166E-08  9.37166545130188E+00
 cg2d: Sum(rhs),rhsMax =  -9.25199330481519E-08  9.36897236493602E+00
 cg2d: Sum(rhs),rhsMax =  -9.25472107837777E-08  9.36624514198210E+00
 cg2d: Sum(rhs),rhsMax =  -9.25749148450450E-08  9.36348144222541E+00
 cg2d: Sum(rhs),rhsMax =  -9.26027894365689E-08  9.36067916467522E+00
 cg2d: Sum(rhs),rhsMax =  -9.26316801042049E-08  9.35783651518778E+00
 cg2d: Sum(rhs),rhsMax =  -9.26604357687211E-08  9.35495205473915E+00
 cg2d: Sum(rhs),rhsMax =  -9.26899872411013E-08  9.35202472862356E+00
 cg2d: Sum(rhs),rhsMax =  -9.27198087197212E-08  9.34905386050751E+00
 cg2d: Sum(rhs),rhsMax =  -9.27502270542391E-08  9.34603912446753E+00
 cg2d: Sum(rhs),rhsMax =  -9.27809580275607E-08  9.34298052032945E+00
 cg2d: Sum(rhs),rhsMax =  -9.28122148025068E-08  9.33987837125357E+00
 cg2d: Sum(rhs),rhsMax =  -9.28438836922396E-08  9.33673332003228E+00
 cg2d: Sum(rhs),rhsMax =  -9.28756591633828E-08  9.33354631509102E+00
 cg2d: Sum(rhs),rhsMax =  -9.29085999246126E-08  9.33031856217985E+00
 cg2d: Sum(rhs),rhsMax =  -9.29414056827227E-08  9.32705144157814E+00
 cg2d: Sum(rhs),rhsMax =  -9.29742824951063E-08  9.32374640924821E+00
 cg2d: Sum(rhs),rhsMax =  -9.30079835370634E-08  9.32040491207867E+00
 cg2d: Sum(rhs),rhsMax =  -9.30417982658582E-08  9.31702830536998E+00
 cg2d: Sum(rhs),rhsMax =  -9.30764798567907E-08  9.31361778906816E+00
 cg2d: Sum(rhs),rhsMax =  -9.31104011669959E-08  9.31017435680010E+00
 cg2d: Sum(rhs),rhsMax =  -9.31454593455783E-08  9.30669874783390E+00
 cg2d: Sum(rhs),rhsMax =  -9.31809367443748E-08  9.30319140183628E+00
 cg2d: Sum(rhs),rhsMax =  -9.32159238686836E-08  9.29965242032067E+00
 cg2d: Sum(rhs),rhsMax =  -9.32518702256857E-08  9.29608155387300E+00
 cg2d: Sum(rhs),rhsMax =  -9.32883352788849E-08  9.29247816276956E+00
 cg2d: Sum(rhs),rhsMax =  -9.33245232204172E-08  9.28884120452690E+00
 cg2d: Sum(rhs),rhsMax =  -9.33613577558390E-08  9.28516924951164E+00
 cg2d: Sum(rhs),rhsMax =  -9.33982562401070E-08  9.28146051649491E+00
 cg2d: Sum(rhs),rhsMax =  -9.34364479121541E-08  9.27771291851975E+00
 cg2d: Sum(rhs),rhsMax =  -9.34740143065937E-08  9.27392411497484E+00
 cg2d: Sum(rhs),rhsMax =  -9.35126251988549E-08  9.27009157616147E+00
 cg2d: Sum(rhs),rhsMax =  -9.35518329470142E-08  9.26621266064052E+00
 cg2d: Sum(rhs),rhsMax =  -9.35912964905583E-08  9.26228469753356E+00
 cg2d: Sum(rhs),rhsMax =  -9.36311082000429E-08  9.25830502540661E+00
 cg2d: Sum(rhs),rhsMax =  -9.36718080879473E-08  9.25427104022615E+00
 cg2d: Sum(rhs),rhsMax =  -9.37130835154676E-08  9.25018025806528E+00
 cg2d: Sum(rhs),rhsMax =  -9.37547639523473E-08  9.24603037476154E+00
 cg2d: Sum(rhs),rhsMax =  -9.37974888870485E-08  9.24181932462259E+00
 cg2d: Sum(rhs),rhsMax =  -9.38402919814507E-08  9.23754533703139E+00
 cg2d: Sum(rhs),rhsMax =  -9.38843172093584E-08  9.23320698439808E+00
 cg2d: Sum(rhs),rhsMax =  -9.39290814017113E-08  9.22880321317793E+00
 cg2d: Sum(rhs),rhsMax =  -9.39739734917566E-08  9.22433335164241E+00
 cg2d: Sum(rhs),rhsMax =  -9.40200521881707E-08  9.21979710173837E+00
 cg2d: Sum(rhs),rhsMax =  -9.40667135296280E-08  9.21519452384442E+00
 cg2d: Sum(rhs),rhsMax =  -9.41140712029664E-08  9.21052602027441E+00
 cg2d: Sum(rhs),rhsMax =  -9.41621181027585E-08  9.20579231856880E+00
 cg2d: Sum(rhs),rhsMax =  -9.42108115964402E-08  9.20099445172383E+00
 cg2d: Sum(rhs),rhsMax =  -9.42603506359774E-08  9.19613373409314E+00
 cg2d: Sum(rhs),rhsMax =  -9.43106570616692E-08  9.19121172891709E+00
 cg2d: Sum(rhs),rhsMax =  -9.43619582471911E-08  9.18623021276131E+00
 cg2d: Sum(rhs),rhsMax =  -9.44129254776271E-08  9.18119115032627E+00
 cg2d: Sum(rhs),rhsMax =  -9.44648874678933E-08  9.17609666859133E+00
 EXTERNAL_FIELDS_LOAD, it=   3600450 : Reading new data, i0,i1=    8    9 (prev=    7    8 )
 DIC_FIELDS_LOAD, it=   3600450 : Reading new data, i0,i1=    8    9 (prev=    7    8 )
 cg2d: Sum(rhs),rhsMax =  -9.45180929079470E-08  9.17094900539886E+00
 cg2d: Sum(rhs),rhsMax =  -9.45713196642828E-08  9.16576037761048E+00
 cg2d: Sum(rhs),rhsMax =  -9.46249869571147E-08  9.16053907873528E+00
 cg2d: Sum(rhs),rhsMax =  -9.46787679367844E-08  9.15529303788953E+00
 cg2d: Sum(rhs),rhsMax =  -9.47327123412833E-08  9.15002961005962E+00
 cg2d: Sum(rhs),rhsMax =  -9.47873814993727E-08  9.14475542293395E+00
 cg2d: Sum(rhs),rhsMax =  -9.48415888046839E-08  9.13947626776025E+00
 cg2d: Sum(rhs),rhsMax =  -9.48963148061921E-08  9.13419703804716E+00
 cg2d: Sum(rhs),rhsMax =  -9.49505718494947E-08  9.12892171232682E+00
 cg2d: Sum(rhs),rhsMax =  -9.50055820680973E-08  9.12365335338700E+00
 cg2d: Sum(rhs),rhsMax =  -9.50602441207593E-08  9.11839411243203E+00
 cg2d: Sum(rhs),rhsMax =  -9.51149274897034E-08  9.11314523538299E+00
 cg2d: Sum(rhs),rhsMax =  -9.51689713701853E-08  9.10790707134369E+00
 cg2d: Sum(rhs),rhsMax =  -9.52241663298992E-08  9.10267908920085E+00
 cg2d: Sum(rhs),rhsMax =  -9.52785583763216E-08  9.09745990818067E+00
 cg2d: Sum(rhs),rhsMax =  -9.53332346398383E-08  9.09224734512777E+00
 cg2d: Sum(rhs),rhsMax =  -9.53879322196372E-08  9.08703847736888E+00
 cg2d: Sum(rhs),rhsMax =  -9.54423811094784E-08  9.08182972075513E+00
 cg2d: Sum(rhs),rhsMax =  -9.54974623823546E-08  9.07661692347198E+00
 cg2d: Sum(rhs),rhsMax =  -9.55527141854873E-08  9.07139547821490E+00
 cg2d: Sum(rhs),rhsMax =  -9.56078878289190E-08  9.06616045270155E+00
 cg2d: Sum(rhs),rhsMax =  -9.56632462134621E-08  9.06090673305150E+00
 cg2d: Sum(rhs),rhsMax =  -9.57190593453561E-08  9.05562917574046E+00
 cg2d: Sum(rhs),rhsMax =  -9.57753982788745E-08  9.05032276301453E+00
 cg2d: Sum(rhs),rhsMax =  -9.58323127520089E-08  9.04498274779792E+00
 cg2d: Sum(rhs),rhsMax =  -9.58890566948867E-08  9.03960479010611E+00
 cg2d: Sum(rhs),rhsMax =  -9.59469090844323E-08  9.03418508103277E+00
 cg2d: Sum(rhs),rhsMax =  -9.60046975251316E-08  9.02872044807494E+00
 cg2d: Sum(rhs),rhsMax =  -9.60634949365158E-08  9.02320843719522E+00
 cg2d: Sum(rhs),rhsMax =  -9.61234505325592E-08  9.01764736350553E+00
 cg2d: Sum(rhs),rhsMax =  -9.61829158541150E-08  9.01203632711249E+00
 cg2d: Sum(rhs),rhsMax =  -9.62436175200310E-08  9.00637519234014E+00
 cg2d: Sum(rhs),rhsMax =  -9.63047241953063E-08  9.00066454100738E+00
 cg2d: Sum(rhs),rhsMax =  -9.63663566722062E-08  8.99490560644289E+00
 cg2d: Sum(rhs),rhsMax =  -9.64286215321408E-08  8.98910019830229E+00
 cg2d: Sum(rhs),rhsMax =  -9.64914832479735E-08  8.98325060608421E+00
 cg2d: Sum(rhs),rhsMax =  -9.65549631359863E-08  8.97735949860674E+00
 cg2d: Sum(rhs),rhsMax =  -9.66191180395981E-08  8.97142982445055E+00
 cg2d: Sum(rhs),rhsMax =  -9.66832942594920E-08  8.96546471599943E+00
 cg2d: Sum(rhs),rhsMax =  -9.67482520763951E-08  8.95946740124540E+00
 cg2d: Sum(rhs),rhsMax =  -9.68132098932983E-08  8.95344112713886E+00
 cg2d: Sum(rhs),rhsMax =  -9.68790274669118E-08  8.94738909112794E+00
 cg2d: Sum(rhs),rhsMax =  -9.69447810916790E-08  8.94131438207753E+00
 cg2d: Sum(rhs),rhsMax =  -9.70111884157632E-08  8.93521991327319E+00
 cg2d: Sum(rhs),rhsMax =  -9.70773115227530E-08  8.92910833888471E+00
 cg2d: Sum(rhs),rhsMax =  -9.71445075492738E-08  8.92298199747039E+00
 cg2d: Sum(rhs),rhsMax =  -9.72113554098541E-08  8.91684290726808E+00
 cg2d: Sum(rhs),rhsMax =  -9.72787574937684E-08  8.91069264633776E+00
 cg2d: Sum(rhs),rhsMax =  -9.73459535202892E-08  8.90453228797114E+00
 cg2d: Sum(rhs),rhsMax =  -9.74135971887335E-08  8.89836249714105E+00
 cg2d: Sum(rhs),rhsMax =  -9.74817027099562E-08  8.89218368115518E+00
 cg2d: Sum(rhs),rhsMax =  -9.75496519117769E-08  8.88599608996445E+00
 cg2d: Sum(rhs),rhsMax =  -9.76179350686834E-08  8.87979980032782E+00
 cg2d: Sum(rhs),rhsMax =  -9.76860476953334E-08  8.87359466021019E+00
 cg2d: Sum(rhs),rhsMax =  -9.77549490244201E-08  8.86737992136571E+00
 cg2d: Sum(rhs),rhsMax =  -9.78237792992331E-08  8.86115449881272E+00
 cg2d: Sum(rhs),rhsMax =  -9.78925882577641E-08  8.85491714939279E+00
 cg2d: Sum(rhs),rhsMax =  -9.79620651264668E-08  8.84866650814923E+00
 cg2d: Sum(rhs),rhsMax =  -9.80318830556826E-08  8.84239908862083E+00
 cg2d: Sum(rhs),rhsMax =  -9.81016583523342E-08  8.83611205511795E+00
 EXTERNAL_FIELDS_LOAD, it=   3600510 : Reading new data, i0,i1=    9   10 (prev=    8    9 )
 DIC_FIELDS_LOAD, it=   3600510 : Reading new data, i0,i1=    9   10 (prev=    8    9 )
 cg2d: Sum(rhs),rhsMax =  -9.81721868242857E-08  8.82980306034887E+00
 cg2d: Sum(rhs),rhsMax =  -9.82427721396562E-08  8.82347164349139E+00
 cg2d: Sum(rhs),rhsMax =  -9.83135990395567E-08  8.81711735596894E+00
 cg2d: Sum(rhs),rhsMax =  -9.83851720093298E-08  8.81074020360017E+00
 cg2d: Sum(rhs),rhsMax =  -9.84564962891454E-08  8.80434063629974E+00
 cg2d: Sum(rhs),rhsMax =  -9.85286376931072E-08  8.79791959804717E+00
 cg2d: Sum(rhs),rhsMax =  -9.86011414738641E-08  8.79147850051498E+00
 cg2d: Sum(rhs),rhsMax =  -9.86734960406466E-08  8.78501923806664E+00
 cg2d: Sum(rhs),rhsMax =  -9.87464900958912E-08  8.77854412431977E+00
 cg2d: Sum(rhs),rhsMax =  -9.88197470519481E-08  8.77205585109022E+00
 cg2d: Sum(rhs),rhsMax =  -9.88934729662105E-08  8.76555740298602E+00
 cg2d: Sum(rhs),rhsMax =  -9.89669146633787E-08  8.75905198910442E+00
 cg2d: Sum(rhs),rhsMax =  -9.90407258427695E-08  8.75254295465281E+00
 cg2d: Sum(rhs),rhsMax =  -9.91145014950234E-08  8.74603368964057E+00
 cg2d: Sum(rhs),rhsMax =  -9.91886466295000E-08  8.73952755244439E+00
 cg2d: Sum(rhs),rhsMax =  -9.92623157003436E-08  8.73302782624689E+00
 cg2d: Sum(rhs),rhsMax =  -9.93363400425551E-08  8.72653766294564E+00
 cg2d: Sum(rhs),rhsMax =  -9.94104141227581E-08  8.72006002219781E+00
 cg2d: Sum(rhs),rhsMax =  -9.94844668866790E-08  8.71359759621992E+00
 cg2d: Sum(rhs),rhsMax =  -9.95583775420528E-08  8.70715278372291E+00
 cg2d: Sum(rhs),rhsMax =  -9.96322597757171E-08  8.70072771032166E+00
 cg2d: Sum(rhs),rhsMax =  -9.97059714791249E-08  8.69432422374462E+00
 cg2d: Sum(rhs),rhsMax =  -9.97792923840279E-08  8.68794392220557E+00
 cg2d: Sum(rhs),rhsMax =  -9.98527127649140E-08  8.68159287495532E+00
 cg2d: Sum(rhs),rhsMax =  -9.99256144496030E-08  8.67527594836007E+00
 cg2d: Sum(rhs),rhsMax =  -9.99983740257449E-08  8.66899648662334E+00
 cg2d: Sum(rhs),rhsMax =  -1.00070764119664E-07  8.66275674813775E+00
 cg2d: Sum(rhs),rhsMax =  -1.00142791836788E-07  8.65655808426570E+00
 cg2d: Sum(rhs),rhsMax =  -1.00214123222031E-07  8.65040095427649E+00
 cg2d: Sum(rhs),rhsMax =  -1.00285419080137E-07  8.64428511771589E+00
 cg2d: Sum(rhs),rhsMax =  -1.00356203347474E-07  8.63820779072895E+00
 cg2d: Sum(rhs),rhsMax =  -1.00426881033400E-07  8.63216610266613E+00
 cg2d: Sum(rhs),rhsMax =  -1.00497182131676E-07  8.62615664857018E+00
 cg2d: Sum(rhs),rhsMax =  -1.00566929006618E-07  8.62017549344574E+00
 cg2d: Sum(rhs),rhsMax =  -1.00636839306389E-07  8.61421824973427E+00
 cg2d: Sum(rhs),rhsMax =  -1.00706515127058E-07  8.60828014305759E+00
 cg2d: Sum(rhs),rhsMax =  -1.00776318845419E-07  8.60235619466164E+00
 cg2d: Sum(rhs),rhsMax =  -1.00845916506387E-07  8.59644141396147E+00
 cg2d: Sum(rhs),rhsMax =  -1.00915485745645E-07  8.59053104903554E+00
 cg2d: Sum(rhs),rhsMax =  -1.00985261042297E-07  8.58462072248315E+00
 cg2d: Sum(rhs),rhsMax =  -1.01055491086299E-07  8.57870663714626E+00
 cg2d: Sum(rhs),rhsMax =  -1.01125422702353E-07  8.57278566865890E+00
 cg2d: Sum(rhs),rhsMax =  -1.01195716695202E-07  8.56685532083521E+00
 cg2d: Sum(rhs),rhsMax =  -1.01266216745444E-07  8.56091374139585E+00
 cg2d: Sum(rhs),rhsMax =  -1.01337192859319E-07  8.55495975914983E+00
 cg2d: Sum(rhs),rhsMax =  -1.01408346608878E-07  8.54899275863313E+00
 cg2d: Sum(rhs),rhsMax =  -1.01479535885574E-07  8.54301265247851E+00
 cg2d: Sum(rhs),rhsMax =  -1.01551435705005E-07  8.53701978569626E+00
 cg2d: Sum(rhs),rhsMax =  -1.01622724457684E-07  8.53101490472480E+00
 cg2d: Sum(rhs),rhsMax =  -1.01695292187287E-07  8.52499919193590E+00
(PID.TID 0000.0001) whio : write lev 2 rec   1
 cg2d: Sum(rhs),rhsMax =  -2.44783471714527E-07  8.51897418323859E+00
 cg2d: Sum(rhs),rhsMax =  -2.44957739425899E-07  8.51294224856493E+00
 cg2d: Sum(rhs),rhsMax =  -2.45131850817870E-07  8.50690564885983E+00
 cg2d: Sum(rhs),rhsMax =  -2.45306104318388E-07  8.50087010325378E+00
 cg2d: Sum(rhs),rhsMax =  -2.45480840987966E-07  8.49484030788981E+00
 cg2d: Sum(rhs),rhsMax =  -2.45655421338142E-07  8.48882091652209E+00
 cg2d: Sum(rhs),rhsMax =  -2.45829966161182E-07  8.48281648598470E+00
 cg2d: Sum(rhs),rhsMax =  -2.46003693860075E-07  8.47683141604414E+00
 cg2d: Sum(rhs),rhsMax =  -2.46177087603883E-07  8.47086986481543E+00
 cg2d: Sum(rhs),rhsMax =  -2.46350516874827E-07  8.46493565647207E+00
(PID.TID 0000.0001) whio : write lev 2 rec   2
 EXTERNAL_FIELDS_LOAD, it=   3600570 : Reading new data, i0,i1=   10   11 (prev=    9   10 )
 DIC_FIELDS_LOAD, it=   3600570 : Reading new data, i0,i1=   10   11 (prev=    9   10 )
 cg2d: Sum(rhs),rhsMax =  -2.46522958491369E-07  8.45903217397129E+00
 cg2d: Sum(rhs),rhsMax =  -2.46693353744831E-07  8.45319776100662E+00
 cg2d: Sum(rhs),rhsMax =  -2.46861752373206E-07  8.44745780781015E+00
 cg2d: Sum(rhs),rhsMax =  -2.47026463284783E-07  8.44183689308228E+00
 cg2d: Sum(rhs),rhsMax =  -2.47187230684176E-07  8.43635808123200E+00
 cg2d: Sum(rhs),rhsMax =  -2.47343706405445E-07  8.43104233122613E+00
 cg2d: Sum(rhs),rhsMax =  -2.47495002270171E-07  8.42590806033104E+00
 cg2d: Sum(rhs),rhsMax =  -2.47640862482967E-07  8.42097079337588E+00
 cg2d: Sum(rhs),rhsMax =  -2.47780199913450E-07  8.41624287670950E+00
 cg2d: Sum(rhs),rhsMax =  -2.47913433781832E-07  8.41173327531019E+00
(PID.TID 0000.0001) whio : write lev 2 rec   3
 cg2d: Sum(rhs),rhsMax =  -2.48040628036961E-07  8.40744751803125E+00
 cg2d: Sum(rhs),rhsMax =  -2.48160993976398E-07  8.40338776690083E+00
 cg2d: Sum(rhs),rhsMax =  -2.48274659497838E-07  8.39955295260282E+00
 cg2d: Sum(rhs),rhsMax =  -2.48382001188929E-07  8.39593904397255E+00
 cg2d: Sum(rhs),rhsMax =  -2.48483310372194E-07  8.39253935780259E+00
 cg2d: Sum(rhs),rhsMax =  -2.48578452044512E-07  8.38934486115791E+00
 cg2d: Sum(rhs),rhsMax =  -2.48667660684987E-07  8.38634455564178E+00
 cg2d: Sum(rhs),rhsMax =  -2.48751881315457E-07  8.38352593271183E+00
 cg2d: Sum(rhs),rhsMax =  -2.48830964721947E-07  8.38087545512510E+00
 cg2d: Sum(rhs),rhsMax =  -2.48905820399159E-07  8.37837910210342E+00
(PID.TID 0000.0001) whio : write lev 2 rec   4
 cg2d: Sum(rhs),rhsMax =  -2.48976242289700E-07  8.37602295704436E+00
 cg2d: Sum(rhs),rhsMax =  -2.49042699351776E-07  8.37379380797618E+00
 cg2d: Sum(rhs),rhsMax =  -2.49106562932866E-07  8.37167959361354E+00
 cg2d: Sum(rhs),rhsMax =  -2.49166241417242E-07  8.36966926830838E+00
 cg2d: Sum(rhs),rhsMax =  -2.49223795378839E-07  8.36775333408158E+00
 cg2d: Sum(rhs),rhsMax =  -2.49279089814536E-07  8.36592380342866E+00
 cg2d: Sum(rhs),rhsMax =  -2.49331364443606E-07  8.36417416133343E+00
 cg2d: Sum(rhs),rhsMax =  -2.49381677974725E-07  8.36249928728285E+00
 cg2d: Sum(rhs),rhsMax =  -2.49429696452808E-07  8.36089538401903E+00
 cg2d: Sum(rhs),rhsMax =  -2.49476237002000E-07  8.35935991281295E+00
(PID.TID 0000.0001) whio : write lev 2 rec   5
 cg2d: Sum(rhs),rhsMax =  -2.49520162753925E-07  8.35789146030961E+00
 cg2d: Sum(rhs),rhsMax =  -2.49562525311831E-07  8.35648964985200E+00
 cg2d: Sum(rhs),rhsMax =  -2.49602841506658E-07  8.35515513914879E+00
 cg2d: Sum(rhs),rhsMax =  -2.49640748961610E-07  8.35388971117527E+00
 cg2d: Sum(rhs),rhsMax =  -2.49676844532587E-07  8.35269628610801E+00
 cg2d: Sum(rhs),rhsMax =  -2.49710517152835E-07  8.35157887088272E+00
 cg2d: Sum(rhs),rhsMax =  -2.49741731295217E-07  8.35054250509572E+00
 cg2d: Sum(rhs),rhsMax =  -2.49770394589177E-07  8.34959323059716E+00
 cg2d: Sum(rhs),rhsMax =  -2.49796435980443E-07  8.34873810769870E+00
 cg2d: Sum(rhs),rhsMax =  -2.49819045450295E-07  8.34798512227025E+00
(PID.TID 0000.0001) whio : write lev 2 rec   6
 cg2d: Sum(rhs),rhsMax =  -2.49838244315015E-07  8.34734290261435E+00
 cg2d: Sum(rhs),rhsMax =  -2.49853975731185E-07  8.34682030367283E+00
 cg2d: Sum(rhs),rhsMax =  -2.49866459967052E-07  8.34642602050246E+00
 cg2d: Sum(rhs),rhsMax =  -2.49874005930906E-07  8.34616833018179E+00
 cg2d: Sum(rhs),rhsMax =  -2.49877167846080E-07  8.34605492416921E+00
 cg2d: Sum(rhs),rhsMax =  -2.49876372038216E-07  8.34609271647880E+00
 cg2d: Sum(rhs),rhsMax =  -2.49870495849791E-07  8.34628766951383E+00
 cg2d: Sum(rhs),rhsMax =  -2.49859972711874E-07  8.34664465917166E+00
 cg2d: Sum(rhs),rhsMax =  -2.49844404720534E-07  8.34716735659488E+00
 cg2d: Sum(rhs),rhsMax =  -2.49823550291239E-07  8.34785810988885E+00
(PID.TID 0000.0001) whio : write lev 2 rec   7
 cg2d: Sum(rhs),rhsMax =  -2.49798063123308E-07  8.34871787621402E+00
 cg2d: Sum(rhs),rhsMax =  -2.49766976878618E-07  8.34974617920463E+00
 cg2d: Sum(rhs),rhsMax =  -2.49731257895291E-07  8.35094113608330E+00
 cg2d: Sum(rhs),rhsMax =  -2.49690643272515E-07  8.35229948619608E+00
 cg2d: Sum(rhs),rhsMax =  -2.49645175642854E-07  8.35381675511217E+00
 cg2d: Sum(rhs),rhsMax =  -2.49595025536564E-07  8.35548736188202E+00
 cg2d: Sum(rhs),rhsMax =  -2.49540875074672E-07  8.35730476743729E+00
 cg2d: Sum(rhs),rhsMax =  -2.49482035030724E-07  8.35926164070414E+00
 cg2d: Sum(rhs),rhsMax =  -2.49419819908780E-07  8.36135002375845E+00
 cg2d: Sum(rhs),rhsMax =  -2.49353568904098E-07  8.36356151790629E+00
(PID.TID 0000.0001) whio : write lev 2 rec   8
 EXTERNAL_FIELDS_LOAD, it=   3600630 : Reading new data, i0,i1=   11   12 (prev=   10   11 )
 DIC_FIELDS_LOAD, it=   3600630 : Reading new data, i0,i1=   11   12 (prev=   10   11 )
 cg2d: Sum(rhs),rhsMax =  -2.49283999664840E-07  8.36588746134833E+00
 cg2d: Sum(rhs),rhsMax =  -2.49212149583400E-07  8.36830171267966E+00
 cg2d: Sum(rhs),rhsMax =  -2.49137990238069E-07  8.37078382670868E+00
 cg2d: Sum(rhs),rhsMax =  -2.49062694024360E-07  8.37331347128018E+00
 cg2d: Sum(rhs),rhsMax =  -2.48986417261676E-07  8.37587083487809E+00
 cg2d: Sum(rhs),rhsMax =  -2.48910055233864E-07  8.37843890797547E+00
 cg2d: Sum(rhs),rhsMax =  -2.48833615046351E-07  8.38100282447941E+00
 cg2d: Sum(rhs),rhsMax =  -2.48757785925591E-07  8.38355008718710E+00
 cg2d: Sum(rhs),rhsMax =  -2.48682930248378E-07  8.38607101327765E+00
 cg2d: Sum(rhs),rhsMax =  -2.48608408526252E-07  8.38855886249661E+00
(PID.TID 0000.0001) whio : write lev 2 rec   9
 cg2d: Sum(rhs),rhsMax =  -2.48536004221478E-07  8.39100987040112E+00
 cg2d: Sum(rhs),rhsMax =  -2.48464210983457E-07  8.39342320470582E+00
 cg2d: Sum(rhs),rhsMax =  -2.48393547508385E-07  8.39580086228628E+00
 cg2d: Sum(rhs),rhsMax =  -2.48323665630323E-07  8.39814747768731E+00
 cg2d: Sum(rhs),rhsMax =  -2.48254892198929E-07  8.40047003473604E+00
 cg2d: Sum(rhs),rhsMax =  -2.48186310614074E-07  8.40277751423481E+00
 cg2d: Sum(rhs),rhsMax =  -2.48117892454047E-07  8.40508048455822E+00
 cg2d: Sum(rhs),rhsMax =  -2.48049687456842E-07  8.40739063604165E+00
 cg2d: Sum(rhs),rhsMax =  -2.47980871392883E-07  8.40972032300375E+00
 cg2d: Sum(rhs),rhsMax =  -2.47910648454308E-07  8.41208213189281E+00
(PID.TID 0000.0001) whio : write lev 2 rec  10
 cg2d: Sum(rhs),rhsMax =  -2.47839537337313E-07  8.41448816606350E+00
 cg2d: Sum(rhs),rhsMax =  -2.47766863026300E-07  8.41694970128980E+00
 cg2d: Sum(rhs),rhsMax =  -2.47691964716523E-07  8.41947813091076E+00
 cg2d: Sum(rhs),rhsMax =  -2.47614714510291E-07  8.42209648974696E+00
 cg2d: Sum(rhs),rhsMax =  -2.47534813979655E-07  8.42482035527151E+00
 cg2d: Sum(rhs),rhsMax =  -2.47451126256237E-07  8.42766351995909E+00
 cg2d: Sum(rhs),rhsMax =  -2.47363992400551E-07  8.43063783312212E+00
 cg2d: Sum(rhs),rhsMax =  -2.47272517128749E-07  8.43375283121391E+00
 cg2d: Sum(rhs),rhsMax =  -2.47176934919935E-07  8.43701559654336E+00
 cg2d: Sum(rhs),rhsMax =  -2.47076883397312E-07  8.44043066353450E+00
(PID.TID 0000.0001) whio : write lev 2 rec  11
 cg2d: Sum(rhs),rhsMax =  -2.46972234663190E-07  8.44400002260639E+00
 cg2d: Sum(rhs),rhsMax =  -2.46863251618379E-07  8.44772316054511E+00
 cg2d: Sum(rhs),rhsMax =  -2.46750062160572E-07  8.45159719138741E+00
 cg2d: Sum(rhs),rhsMax =  -2.46632367861821E-07  8.45561701011588E+00
 cg2d: Sum(rhs),rhsMax =  -2.46511149271100E-07  8.45977551282957E+00
 cg2d: Sum(rhs),rhsMax =  -2.46386285596145E-07  8.46406373659226E+00
 cg2d: Sum(rhs),rhsMax =  -2.46257769731528E-07  8.46847122879392E+00
 cg2d: Sum(rhs),rhsMax =  -2.46126411695968E-07  8.47298635145432E+00
 cg2d: Sum(rhs),rhsMax =  -2.45992481495705E-07  8.47759653567383E+00
 cg2d: Sum(rhs),rhsMax =  -2.45856256242405E-07  8.48228855871733E+00
(PID.TID 0000.0001) whio : write lev 2 rec  12
 cg2d: Sum(rhs),rhsMax =  -2.45718460689659E-07  8.48704884333580E+00
 cg2d: Sum(rhs),rhsMax =  -2.45578725355244E-07  8.49186380279765E+00
 cg2d: Sum(rhs),rhsMax =  -2.45438343426940E-07  8.49672023122521E+00
 cg2d: Sum(rhs),rhsMax =  -2.45297442802439E-07  8.50160566769727E+00
 cg2d: Sum(rhs),rhsMax =  -2.45155710842937E-07  8.50650876168224E+00
 cg2d: Sum(rhs),rhsMax =  -2.45014355471085E-07  8.51141938832254E+00
 cg2d: Sum(rhs),rhsMax =  -2.44872978782951E-07  8.51632882603140E+00
 cg2d: Sum(rhs),rhsMax =  -2.44732156318150E-07  8.52122992574505E+00
 cg2d: Sum(rhs),rhsMax =  -2.44592122555787E-07  8.52611725421215E+00
 cg2d: Sum(rhs),rhsMax =  -2.44452138531415E-07  8.53098720300080E+00
(PID.TID 0000.0001) whio : write lev 2 rec  13
 cg2d: Sum(rhs),rhsMax =  -2.44313056896317E-07  8.53583804386303E+00
 cg2d: Sum(rhs),rhsMax =  -2.44175289765280E-07  8.54066993807463E+00
 cg2d: Sum(rhs),rhsMax =  -2.44037558161381E-07  8.54548489389639E+00
 cg2d: Sum(rhs),rhsMax =  -2.43900487362225E-07  8.55028665503631E+00
 cg2d: Sum(rhs),rhsMax =  -2.43763828677857E-07  8.55508055409759E+00
 cg2d: Sum(rhs),rhsMax =  -2.43627631846266E-07  8.55987334584090E+00
 cg2d: Sum(rhs),rhsMax =  -2.43490916318478E-07  8.56467304589797E+00
 cg2d: Sum(rhs),rhsMax =  -2.43354129736417E-07  8.56948875081293E+00
 cg2d: Sum(rhs),rhsMax =  -2.43216923934142E-07  8.57433041210705E+00
 cg2d: Sum(rhs),rhsMax =  -2.43078602579772E-07  8.57920857075689E+00
(PID.TID 0000.0001) whio : write lev 2 rec  14
 EXTERNAL_FIELDS_LOAD, it=   3600690 : Reading new data, i0,i1=   12    1 (prev=   11   12 )
 DIC_FIELDS_LOAD, it=   3600690 : Reading new data, i0,i1=   12    1 (prev=   11   12 )
 cg2d: Sum(rhs),rhsMax =  -2.42939044881041E-07  8.58413406052202E+00
 cg2d: Sum(rhs),rhsMax =  -2.42799337968336E-07  8.58909115986565E+00
 cg2d: Sum(rhs),rhsMax =  -2.42658693139219E-07  8.59407439112439E+00
 cg2d: Sum(rhs),rhsMax =  -2.42517621984462E-07  8.59907838916988E+00
 cg2d: Sum(rhs),rhsMax =  -2.42376209769191E-07  8.60409812483420E+00
 cg2d: Sum(rhs),rhsMax =  -2.42234591496526E-07  8.60912903142987E+00
 cg2d: Sum(rhs),rhsMax =  -2.42093065594418E-07  8.61416710086381E+00
 cg2d: Sum(rhs),rhsMax =  -2.41951582324873E-07  8.61920891727868E+00
 cg2d: Sum(rhs),rhsMax =  -2.41810418799560E-07  8.62425159962176E+00
 cg2d: Sum(rhs),rhsMax =  -2.41669411593648E-07  8.62929265748306E+00
(PID.TID 0000.0001) whio : write lev 2 rec  15
 cg2d: Sum(rhs),rhsMax =  -2.41528212541198E-07  8.63432985252268E+00
 cg2d: Sum(rhs),rhsMax =  -2.41388200095116E-07  8.63936110467875E+00
 cg2d: Sum(rhs),rhsMax =  -2.41247725796256E-07  8.64438452071694E+00
 cg2d: Sum(rhs),rhsMax =  -2.41107890985859E-07  8.64939845502298E+00
 cg2d: Sum(rhs),rhsMax =  -2.40969008302727E-07  8.65440163740473E+00
 cg2d: Sum(rhs),rhsMax =  -2.40829955089339E-07  8.65939341167613E+00
 cg2d: Sum(rhs),rhsMax =  -2.40691825581507E-07  8.66437380926046E+00
 cg2d: Sum(rhs),rhsMax =  -2.40553994501624E-07  8.66934351194661E+00
 cg2d: Sum(rhs),rhsMax =  -2.40416618169093E-07  8.67430280369745E+00
 cg2d: Sum(rhs),rhsMax =  -2.40279604213356E-07  8.67925548690400E+00
(PID.TID 0000.0001) whio : write lev 2 rec  16
 cg2d: Sum(rhs),rhsMax =  -2.40142895790996E-07  8.68420665617491E+00
 cg2d: Sum(rhs),rhsMax =  -2.40006130525217E-07  8.68916145963729E+00
 cg2d: Sum(rhs),rhsMax =  -2.39869450524566E-07  8.69412491880011E+00
 cg2d: Sum(rhs),rhsMax =  -2.39731853923786E-07  8.69910175166197E+00
 cg2d: Sum(rhs),rhsMax =  -2.39594477591254E-07  8.70409625463335E+00
 cg2d: Sum(rhs),rhsMax =  -2.39456610984234E-07  8.70911224623719E+00
 cg2d: Sum(rhs),rhsMax =  -2.39318524108967E-07  8.71415300952969E+00
 cg2d: Sum(rhs),rhsMax =  -2.39179819061519E-07  8.71922107400600E+00
 cg2d: Sum(rhs),rhsMax =  -2.39039941618557E-07  8.72431810322763E+00
 cg2d: Sum(rhs),rhsMax =  -2.38899893645339E-07  8.72944491034874E+00
(PID.TID 0000.0001) whio : write lev 2 rec  17
 cg2d: Sum(rhs),rhsMax =  -2.38758616433188E-07  8.73460150471141E+00
 cg2d: Sum(rhs),rhsMax =  -2.38616948422532E-07  8.73978715591014E+00
 cg2d: Sum(rhs),rhsMax =  -2.38474669345123E-07  8.74500048107581E+00
 cg2d: Sum(rhs),rhsMax =  -2.38332305002587E-07  8.75023954225340E+00
 cg2d: Sum(rhs),rhsMax =  -2.38189322487870E-07  8.75550195605016E+00
 cg2d: Sum(rhs),rhsMax =  -2.38046069966913E-07  8.76078500778492E+00
 cg2d: Sum(rhs),rhsMax =  -2.37902014532665E-07  8.76608574658582E+00
 cg2d: Sum(rhs),rhsMax =  -2.37757973309272E-07  8.77140108996162E+00
 cg2d: Sum(rhs),rhsMax =  -2.37613583919938E-07  8.77672791128606E+00
 cg2d: Sum(rhs),rhsMax =  -2.37469464536844E-07  8.78206311907848E+00
(PID.TID 0000.0001) Did not write pickup because writePickupAtEnd = FALSE
(PID.TID 0000.0001) whio : write lev 2 rec  18
(PID.TID 0000.0001) whio : write lev 2 rec  19
(PID.TID 0000.0001) whio : write lev 2 rec  20
(PID.TID 0000.0001) whio : write lev 2 rec  21
(PID.TID 0000.0001) whio : write lev 2 rec  22
(PID.TID 0000.0001) whio : write lev 2 rec  23
(PID.TID 0000.0001) whio : write lev 2 rec  24
(PID.TID 0000.0001) whio : write lev 2 rec  25
(PID.TID 0000.0001) whio : write lev 2 rec  26
(PID.TID 0000.0001) whio : write lev 2 rec  27
(PID.TID 0000.0001) whio : write lev 2 rec  28
 cg2d: Sum(rhs),rhsMax =  -2.44783471714527E-07  8.51897418323859E+00
 cg2d: Sum(rhs),rhsMax =  -2.44957739425899E-07  8.51294224856493E+00
 cg2d: Sum(rhs),rhsMax =  -2.45131850817870E-07  8.50690564885983E+00
 cg2d: Sum(rhs),rhsMax =  -2.45306104318388E-07  8.50087010325378E+00
 cg2d: Sum(rhs),rhsMax =  -2.45480840987966E-07  8.49484030788981E+00
 cg2d: Sum(rhs),rhsMax =  -2.45655421338142E-07  8.48882091652209E+00
 cg2d: Sum(rhs),rhsMax =  -2.45829966161182E-07  8.48281648598470E+00
 cg2d: Sum(rhs),rhsMax =  -2.46003693860075E-07  8.47683141604414E+00
 cg2d: Sum(rhs),rhsMax =  -2.46177087603883E-07  8.47086986481543E+00
 cg2d: Sum(rhs),rhsMax =  -2.46350516874827E-07  8.46493565647207E+00
 EXTERNAL_FIELDS_LOAD, it=   3600570 : Reading new data, i0,i1=   10   11 (prev=    9    1 )
 DIC_FIELDS_LOAD, it=   3600570 : Reading new data, i0,i1=   10   11 (prev=    9   10 )
 cg2d: Sum(rhs),rhsMax =  -2.46522958491369E-07  8.45903217397129E+00
 cg2d: Sum(rhs),rhsMax =  -2.46693353744831E-07  8.45319776100662E+00
 cg2d: Sum(rhs),rhsMax =  -2.46861752373206E-07  8.44745780781015E+00
 cg2d: Sum(rhs),rhsMax =  -2.47026463284783E-07  8.44183689308228E+00
 cg2d: Sum(rhs),rhsMax =  -2.47187230684176E-07  8.43635808123200E+00
 cg2d: Sum(rhs),rhsMax =  -2.47343706405445E-07  8.43104233122613E+00
 cg2d: Sum(rhs),rhsMax =  -2.47495002270171E-07  8.42590806033104E+00
 cg2d: Sum(rhs),rhsMax =  -2.47640862482967E-07  8.42097079337588E+00
 cg2d: Sum(rhs),rhsMax =  -2.47780199913450E-07  8.41624287670950E+00
 cg2d: Sum(rhs),rhsMax =  -2.47913433781832E-07  8.41173327531019E+00
 cg2d: Sum(rhs),rhsMax =  -2.48040628036961E-07  8.40744751803125E+00
 cg2d: Sum(rhs),rhsMax =  -2.48160993976398E-07  8.40338776690083E+00
 cg2d: Sum(rhs),rhsMax =  -2.48274659497838E-07  8.39955295260282E+00
 cg2d: Sum(rhs),rhsMax =  -2.48382001188929E-07  8.39593904397255E+00
 cg2d: Sum(rhs),rhsMax =  -2.48483310372194E-07  8.39253935780259E+00
 cg2d: Sum(rhs),rhsMax =  -2.48578452044512E-07  8.38934486115791E+00
 cg2d: Sum(rhs),rhsMax =  -2.48667660684987E-07  8.38634455564178E+00
 cg2d: Sum(rhs),rhsMax =  -2.48751881315457E-07  8.38352593271183E+00
 cg2d: Sum(rhs),rhsMax =  -2.48830964721947E-07  8.38087545512510E+00
 cg2d: Sum(rhs),rhsMax =  -2.48905820399159E-07  8.37837910210342E+00
 cg2d: Sum(rhs),rhsMax =  -2.48976242289700E-07  8.37602295704436E+00
 cg2d: Sum(rhs),rhsMax =  -2.49042699351776E-07  8.37379380797618E+00
 cg2d: Sum(rhs),rhsMax =  -2.49106562932866E-07  8.37167959361354E+00
 cg2d: Sum(rhs),rhsMax =  -2.49166241417242E-07  8.36966926830838E+00
 cg2d: Sum(rhs),rhsMax =  -2.49223795378839E-07  8.36775333408158E+00
 cg2d: Sum(rhs),rhsMax =  -2.49279089814536E-07  8.36592380342866E+00
 cg2d: Sum(rhs),rhsMax =  -2.49331364443606E-07  8.36417416133343E+00
 cg2d: Sum(rhs),rhsMax =  -2.49381677974725E-07  8.36249928728285E+00
 cg2d: Sum(rhs),rhsMax =  -2.49429696452808E-07  8.36089538401903E+00
 cg2d: Sum(rhs),rhsMax =  -2.49476237002000E-07  8.35935991281295E+00
 cg2d: Sum(rhs),rhsMax =  -2.49520162753925E-07  8.35789146030961E+00
 cg2d: Sum(rhs),rhsMax =  -2.49562525311831E-07  8.35648964985200E+00
 cg2d: Sum(rhs),rhsMax =  -2.49602841506658E-07  8.35515513914879E+00
 cg2d: Sum(rhs),rhsMax =  -2.49640748961610E-07  8.35388971117527E+00
 cg2d: Sum(rhs),rhsMax =  -2.49676844532587E-07  8.35269628610801E+00
 cg2d: Sum(rhs),rhsMax =  -2.49710517152835E-07  8.35157887088272E+00
 cg2d: Sum(rhs),rhsMax =  -2.49741731295217E-07  8.35054250509572E+00
 cg2d: Sum(rhs),rhsMax =  -2.49770394589177E-07  8.34959323059716E+00
 cg2d: Sum(rhs),rhsMax =  -2.49796435980443E-07  8.34873810769870E+00
 cg2d: Sum(rhs),rhsMax =  -2.49819045450295E-07  8.34798512227025E+00
 cg2d: Sum(rhs),rhsMax =  -2.49838244315015E-07  8.34734290261435E+00
 cg2d: Sum(rhs),rhsMax =  -2.49853975731185E-07  8.34682030367283E+00
 cg2d: Sum(rhs),rhsMax =  -2.49866459967052E-07  8.34642602050246E+00
 cg2d: Sum(rhs),rhsMax =  -2.49874005930906E-07  8.34616833018179E+00
 cg2d: Sum(rhs),rhsMax =  -2.49877167846080E-07  8.34605492416921E+00
 cg2d: Sum(rhs),rhsMax =  -2.49876372038216E-07  8.34609271647880E+00
 cg2d: Sum(rhs),rhsMax =  -2.49870495849791E-07  8.34628766951383E+00
 cg2d: Sum(rhs),rhsMax =  -2.49859972711874E-07  8.34664465917166E+00
 cg2d: Sum(rhs),rhsMax =  -2.49844404720534E-07  8.34716735659488E+00
 cg2d: Sum(rhs),rhsMax =  -2.49823550291239E-07  8.34785810988885E+00
 cg2d: Sum(rhs),rhsMax =  -2.49798063123308E-07  8.34871787621402E+00
 cg2d: Sum(rhs),rhsMax =  -2.49766976878618E-07  8.34974617920463E+00
 cg2d: Sum(rhs),rhsMax =  -2.49731257895291E-07  8.35094113608330E+00
 cg2d: Sum(rhs),rhsMax =  -2.49690643272515E-07  8.35229948619608E+00
 cg2d: Sum(rhs),rhsMax =  -2.49645175642854E-07  8.35381675511217E+00
 cg2d: Sum(rhs),rhsMax =  -2.49595025536564E-07  8.35548736188202E+00
 cg2d: Sum(rhs),rhsMax =  -2.49540875074672E-07  8.35730476743729E+00
 cg2d: Sum(rhs),rhsMax =  -2.49482035030724E-07  8.35926164070414E+00
 cg2d: Sum(rhs),rhsMax =  -2.49419819908780E-07  8.36135002375845E+00
 cg2d: Sum(rhs),rhsMax =  -2.49353568904098E-07  8.36356151790629E+00
 EXTERNAL_FIELDS_LOAD, it=   3600630 : Reading new data, i0,i1=   11   12 (prev=   10   11 )
 DIC_FIELDS_LOAD, it=   3600630 : Reading new data, i0,i1=   11   12 (prev=   10   11 )
 cg2d: Sum(rhs),rhsMax =  -2.49283999664840E-07  8.36588746134833E+00
 cg2d: Sum(rhs),rhsMax =  -2.49212149583400E-07  8.36830171267966E+00
 cg2d: Sum(rhs),rhsMax =  -2.49137990238069E-07  8.37078382670868E+00
 cg2d: Sum(rhs),rhsMax =  -2.49062694024360E-07  8.37331347128018E+00
 cg2d: Sum(rhs),rhsMax =  -2.48986417261676E-07  8.37587083487809E+00
 cg2d: Sum(rhs),rhsMax =  -2.48910055233864E-07  8.37843890797547E+00
 cg2d: Sum(rhs),rhsMax =  -2.48833615046351E-07  8.38100282447941E+00
 cg2d: Sum(rhs),rhsMax =  -2.48757785925591E-07  8.38355008718710E+00
 cg2d: Sum(rhs),rhsMax =  -2.48682930248378E-07  8.38607101327765E+00
 cg2d: Sum(rhs),rhsMax =  -2.48608408526252E-07  8.38855886249661E+00
 cg2d: Sum(rhs),rhsMax =  -2.48536004221478E-07  8.39100987040112E+00
 cg2d: Sum(rhs),rhsMax =  -2.48464210983457E-07  8.39342320470582E+00
 cg2d: Sum(rhs),rhsMax =  -2.48393547508385E-07  8.39580086228628E+00
 cg2d: Sum(rhs),rhsMax =  -2.48323665630323E-07  8.39814747768731E+00
 cg2d: Sum(rhs),rhsMax =  -2.48254892198929E-07  8.40047003473604E+00
 cg2d: Sum(rhs),rhsMax =  -2.48186310614074E-07  8.40277751423481E+00
 cg2d: Sum(rhs),rhsMax =  -2.48117892454047E-07  8.40508048455822E+00
 cg2d: Sum(rhs),rhsMax =  -2.48049687456842E-07  8.40739063604165E+00
 cg2d: Sum(rhs),rhsMax =  -2.47980871392883E-07  8.40972032300375E+00
 cg2d: Sum(rhs),rhsMax =  -2.47910648454308E-07  8.41208213189281E+00
 cg2d: Sum(rhs),rhsMax =  -2.47839537337313E-07  8.41448816606350E+00
 cg2d: Sum(rhs),rhsMax =  -2.47766863026300E-07  8.41694970128980E+00
 cg2d: Sum(rhs),rhsMax =  -2.47691964716523E-07  8.41947813091076E+00
 cg2d: Sum(rhs),rhsMax =  -2.47614714510291E-07  8.42209648974696E+00
 cg2d: Sum(rhs),rhsMax =  -2.47534813979655E-07  8.42482035527151E+00
 cg2d: Sum(rhs),rhsMax =  -2.47451126256237E-07  8.42766351995909E+00
 cg2d: Sum(rhs),rhsMax =  -2.47363992400551E-07  8.43063783312212E+00
 cg2d: Sum(rhs),rhsMax =  -2.47272517128749E-07  8.43375283121391E+00
 cg2d: Sum(rhs),rhsMax =  -2.47176934919935E-07  8.43701559654336E+00
 cg2d: Sum(rhs),rhsMax =  -2.47076883397312E-07  8.44043066353450E+00
 cg2d: Sum(rhs),rhsMax =  -2.46972234663190E-07  8.44400002260639E+00
 cg2d: Sum(rhs),rhsMax =  -2.46863251618379E-07  8.44772316054511E+00
 cg2d: Sum(rhs),rhsMax =  -2.46750062160572E-07  8.45159719138741E+00
 cg2d: Sum(rhs),rhsMax =  -2.46632367861821E-07  8.45561701011588E+00
 cg2d: Sum(rhs),rhsMax =  -2.46511149271100E-07  8.45977551282957E+00
 cg2d: Sum(rhs),rhsMax =  -2.46386285596145E-07  8.46406373659226E+00
 cg2d: Sum(rhs),rhsMax =  -2.46257769731528E-07  8.46847122879392E+00
 cg2d: Sum(rhs),rhsMax =  -2.46126411695968E-07  8.47298635145432E+00
 cg2d: Sum(rhs),rhsMax =  -2.45992481495705E-07  8.47759653567383E+00
 cg2d: Sum(rhs),rhsMax =  -2.45856256242405E-07  8.48228855871733E+00
 cg2d: Sum(rhs),rhsMax =  -2.45718460689659E-07  8.48704884333580E+00
 cg2d: Sum(rhs),rhsMax =  -2.45578725355244E-07  8.49186380279765E+00
 cg2d: Sum(rhs),rhsMax =  -2.45438343426940E-07  8.49672023122521E+00
 cg2d: Sum(rhs),rhsMax =  -2.45297442802439E-07  8.50160566769727E+00
 cg2d: Sum(rhs),rhsMax =  -2.45155710842937E-07  8.50650876168224E+00
 cg2d: Sum(rhs),rhsMax =  -2.45014355471085E-07  8.51141938832254E+00
 cg2d: Sum(rhs),rhsMax =  -2.44872978782951E-07  8.51632882603140E+00
 cg2d: Sum(rhs),rhsMax =  -2.44732156318150E-07  8.52122992574505E+00
 cg2d: Sum(rhs),rhsMax =  -2.44592122555787E-07  8.52611725421215E+00
 cg2d: Sum(rhs),rhsMax =  -2.44452138531415E-07  8.53098720300080E+00
 cg2d: Sum(rhs),rhsMax =  -2.44313056896317E-07  8.53583804386303E+00
 cg2d: Sum(rhs),rhsMax =  -2.44175289765280E-07  8.54066993807463E+00
 cg2d: Sum(rhs),rhsMax =  -2.44037558161381E-07  8.54548489389639E+00
 cg2d: Sum(rhs),rhsMax =  -2.43900487362225E-07  8.55028665503631E+00
 cg2d: Sum(rhs),rhsMax =  -2.43763828677857E-07  8.55508055409759E+00
 cg2d: Sum(rhs),rhsMax =  -2.43627631846266E-07  8.55987334584090E+00
 cg2d: Sum(rhs),rhsMax =  -2.43490916318478E-07  8.56467304589797E+00
 cg2d: Sum(rhs),rhsMax =  -2.43354129736417E-07  8.56948875081293E+00
 cg2d: Sum(rhs),rhsMax =  -2.43216923934142E-07  8.57433041210705E+00
 cg2d: Sum(rhs),rhsMax =  -2.43078602579772E-07  8.57920857075689E+00
 EXTERNAL_FIELDS_LOAD, it=   3600690 : Reading new data, i0,i1=   12    1 (prev=   11   12 )
 DIC_FIELDS_LOAD, it=   3600690 : Reading new data, i0,i1=   12    1 (prev=   11   12 )
 cg2d: Sum(rhs),rhsMax =  -2.42939044881041E-07  8.58413406052202E+00
 cg2d: Sum(rhs),rhsMax =  -2.42799337968336E-07  8.58909115986565E+00
 cg2d: Sum(rhs),rhsMax =  -2.42658693139219E-07  8.59407439112439E+00
 cg2d: Sum(rhs),rhsMax =  -2.42517621984462E-07  8.59907838916988E+00
 cg2d: Sum(rhs),rhsMax =  -2.42376209769191E-07  8.60409812483420E+00
 cg2d: Sum(rhs),rhsMax =  -2.42234591496526E-07  8.60912903142987E+00
 cg2d: Sum(rhs),rhsMax =  -2.42093065594418E-07  8.61416710086381E+00
 cg2d: Sum(rhs),rhsMax =  -2.41951582324873E-07  8.61920891727868E+00
 cg2d: Sum(rhs),rhsMax =  -2.41810418799560E-07  8.62425159962176E+00
 cg2d: Sum(rhs),rhsMax =  -2.41669411593648E-07  8.62929265748306E+00
 cg2d: Sum(rhs),rhsMax =  -2.41528212541198E-07  8.63432985252268E+00
 cg2d: Sum(rhs),rhsMax =  -2.41388200095116E-07  8.63936110467875E+00
 cg2d: Sum(rhs),rhsMax =  -2.41247725796256E-07  8.64438452071694E+00
 cg2d: Sum(rhs),rhsMax =  -2.41107890985859E-07  8.64939845502298E+00
 cg2d: Sum(rhs),rhsMax =  -2.40969008302727E-07  8.65440163740473E+00
 cg2d: Sum(rhs),rhsMax =  -2.40829955089339E-07  8.65939341167613E+00
 cg2d: Sum(rhs),rhsMax =  -2.40691825581507E-07  8.66437380926046E+00
 cg2d: Sum(rhs),rhsMax =  -2.40553994501624E-07  8.66934351194661E+00
 cg2d: Sum(rhs),rhsMax =  -2.40416618169093E-07  8.67430280369745E+00
 cg2d: Sum(rhs),rhsMax =  -2.40279604213356E-07  8.67925548690400E+00
 cg2d: Sum(rhs),rhsMax =  -2.40142895790996E-07  8.68420665617491E+00
 cg2d: Sum(rhs),rhsMax =  -2.40006130525217E-07  8.68916145963729E+00
 cg2d: Sum(rhs),rhsMax =  -2.39869450524566E-07  8.69412491880011E+00
 cg2d: Sum(rhs),rhsMax =  -2.39731853923786E-07  8.69910175166197E+00
 cg2d: Sum(rhs),rhsMax =  -2.39594477591254E-07  8.70409625463335E+00
 cg2d: Sum(rhs),rhsMax =  -2.39456610984234E-07  8.70911224623719E+00
 cg2d: Sum(rhs),rhsMax =  -2.39318524108967E-07  8.71415300952969E+00
 cg2d: Sum(rhs),rhsMax =  -2.39179819061519E-07  8.71922107400600E+00
 cg2d: Sum(rhs),rhsMax =  -2.39039941618557E-07  8.72431810322763E+00
 cg2d: Sum(rhs),rhsMax =  -2.38899893645339E-07  8.72944491034874E+00
 cg2d: Sum(rhs),rhsMax =  -2.38758616433188E-07  8.73460150471141E+00
 cg2d: Sum(rhs),rhsMax =  -2.38616948422532E-07  8.73978715591014E+00
 cg2d: Sum(rhs),rhsMax =  -2.38474669345123E-07  8.74500048107581E+00
 cg2d: Sum(rhs),rhsMax =  -2.38332305002587E-07  8.75023954225340E+00
 cg2d: Sum(rhs),rhsMax =  -2.38189322487870E-07  8.75550195605016E+00
 cg2d: Sum(rhs),rhsMax =  -2.38046069966913E-07  8.76078500778492E+00
 cg2d: Sum(rhs),rhsMax =  -2.37902014532665E-07  8.76608574658582E+00
 cg2d: Sum(rhs),rhsMax =  -2.37757973309272E-07  8.77140108996162E+00
 cg2d: Sum(rhs),rhsMax =  -2.37613583919938E-07  8.77672791128606E+00
 cg2d: Sum(rhs),rhsMax =  -2.37469464536844E-07  8.78206311907848E+00
(PID.TID 0000.0001) Did not write pickup because writePickupAtEnd = FALSE
 cg2d: Sum(rhs),rhsMax =  -2.44783471714527E-07  8.51897418323859E+00
 cg2d: Sum(rhs),rhsMax =  -2.44957739425899E-07  8.51294224856493E+00
 cg2d: Sum(rhs),rhsMax =  -2.45131850817870E-07  8.50690564885983E+00
 cg2d: Sum(rhs),rhsMax =  -2.45306104318388E-07  8.50087010325378E+00
 cg2d: Sum(rhs),rhsMax =  -2.45480840987966E-07  8.49484030788981E+00
 cg2d: Sum(rhs),rhsMax =  -2.45655421338142E-07  8.48882091652209E+00
 cg2d: Sum(rhs),rhsMax =  -2.45829966161182E-07  8.48281648598470E+00
 cg2d: Sum(rhs),rhsMax =  -2.46003693860075E-07  8.47683141604414E+00
 cg2d: Sum(rhs),rhsMax =  -2.46177087603883E-07  8.47086986481543E+00
 cg2d: Sum(rhs),rhsMax =  -2.46350516874827E-07  8.46493565647207E+00
 EXTERNAL_FIELDS_LOAD, it=   3600570 : Reading new data, i0,i1=   10   11 (prev=    9    1 )
 DIC_FIELDS_LOAD, it=   3600570 : Reading new data, i0,i1=   10   11 (prev=    9   10 )
 cg2d: Sum(rhs),rhsMax =  -2.46522958491369E-07  8.45903217397129E+00
 cg2d: Sum(rhs),rhsMax =  -2.46693353744831E-07  8.45319776100662E+00
 cg2d: Sum(rhs),rhsMax =  -2.46861752373206E-07  8.44745780781015E+00
 cg2d: Sum(rhs),rhsMax =  -2.47026463284783E-07  8.44183689308228E+00
 cg2d: Sum(rhs),rhsMax =  -2.47187230684176E-07  8.43635808123200E+00
 cg2d: Sum(rhs),rhsMax =  -2.47343706405445E-07  8.43104233122613E+00
 cg2d: Sum(rhs),rhsMax =  -2.47495002270171E-07  8.42590806033104E+00
 cg2d: Sum(rhs),rhsMax =  -2.47640862482967E-07  8.42097079337588E+00
 cg2d: Sum(rhs),rhsMax =  -2.47780199913450E-07  8.41624287670950E+00
 cg2d: Sum(rhs),rhsMax =  -2.47913433781832E-07  8.41173327531019E+00
 cg2d: Sum(rhs),rhsMax =  -2.48040628036961E-07  8.40744751803125E+00
 cg2d: Sum(rhs),rhsMax =  -2.48160993976398E-07  8.40338776690083E+00
 cg2d: Sum(rhs),rhsMax =  -2.48274659497838E-07  8.39955295260282E+00
 cg2d: Sum(rhs),rhsMax =  -2.48382001188929E-07  8.39593904397255E+00
 cg2d: Sum(rhs),rhsMax =  -2.48483310372194E-07  8.39253935780259E+00
 cg2d: Sum(rhs),rhsMax =  -2.48578452044512E-07  8.38934486115791E+00
 cg2d: Sum(rhs),rhsMax =  -2.48667660684987E-07  8.38634455564178E+00
 cg2d: Sum(rhs),rhsMax =  -2.48751881315457E-07  8.38352593271183E+00
 cg2d: Sum(rhs),rhsMax =  -2.48830964721947E-07  8.38087545512510E+00
 cg2d: Sum(rhs),rhsMax =  -2.48905820399159E-07  8.37837910210342E+00
 cg2d: Sum(rhs),rhsMax =  -2.48976242289700E-07  8.37602295704436E+00
 cg2d: Sum(rhs),rhsMax =  -2.49042699351776E-07  8.37379380797618E+00
 cg2d: Sum(rhs),rhsMax =  -2.49106562932866E-07  8.37167959361354E+00
 cg2d: Sum(rhs),rhsMax =  -2.49166241417242E-07  8.36966926830838E+00
 cg2d: Sum(rhs),rhsMax =  -2.49223795378839E-07  8.36775333408158E+00
 cg2d: Sum(rhs),rhsMax =  -2.49279089814536E-07  8.36592380342866E+00
 cg2d: Sum(rhs),rhsMax =  -2.49331364443606E-07  8.36417416133343E+00
 cg2d: Sum(rhs),rhsMax =  -2.49381677974725E-07  8.36249928728285E+00
 cg2d: Sum(rhs),rhsMax =  -2.49429696452808E-07  8.36089538401903E+00
 cg2d: Sum(rhs),rhsMax =  -2.49476237002000E-07  8.35935991281295E+00
 cg2d: Sum(rhs),rhsMax =  -2.49520162753925E-07  8.35789146030961E+00
 cg2d: Sum(rhs),rhsMax =  -2.49562525311831E-07  8.35648964985200E+00
 cg2d: Sum(rhs),rhsMax =  -2.49602841506658E-07  8.35515513914879E+00
 cg2d: Sum(rhs),rhsMax =  -2.49640748961610E-07  8.35388971117527E+00
 cg2d: Sum(rhs),rhsMax =  -2.49676844532587E-07  8.35269628610801E+00
 cg2d: Sum(rhs),rhsMax =  -2.49710517152835E-07  8.35157887088272E+00
 cg2d: Sum(rhs),rhsMax =  -2.49741731295217E-07  8.35054250509572E+00
 cg2d: Sum(rhs),rhsMax =  -2.49770394589177E-07  8.34959323059716E+00
 cg2d: Sum(rhs),rhsMax =  -2.49796435980443E-07  8.34873810769870E+00
 cg2d: Sum(rhs),rhsMax =  -2.49819045450295E-07  8.34798512227025E+00
 cg2d: Sum(rhs),rhsMax =  -2.49838244315015E-07  8.34734290261435E+00
 cg2d: Sum(rhs),rhsMax =  -2.49853975731185E-07  8.34682030367283E+00
 cg2d: Sum(rhs),rhsMax =  -2.49866459967052E-07  8.34642602050246E+00
 cg2d: Sum(rhs),rhsMax =  -2.49874005930906E-07  8.34616833018179E+00
 cg2d: Sum(rhs),rhsMax =  -2.49877167846080E-07  8.34605492416921E+00
 cg2d: Sum(rhs),rhsMax =  -2.49876372038216E-07  8.34609271647880E+00
 cg2d: Sum(rhs),rhsMax =  -2.49870495849791E-07  8.34628766951383E+00
 cg2d: Sum(rhs),rhsMax =  -2.49859972711874E-07  8.34664465917166E+00
 cg2d: Sum(rhs),rhsMax =  -2.49844404720534E-07  8.34716735659488E+00
 cg2d: Sum(rhs),rhsMax =  -2.49823550291239E-07  8.34785810988885E+00
 cg2d: Sum(rhs),rhsMax =  -2.49798063123308E-07  8.34871787621402E+00
 cg2d: Sum(rhs),rhsMax =  -2.49766976878618E-07  8.34974617920463E+00
 cg2d: Sum(rhs),rhsMax =  -2.49731257895291E-07  8.35094113608330E+00
 cg2d: Sum(rhs),rhsMax =  -2.49690643272515E-07  8.35229948619608E+00
 cg2d: Sum(rhs),rhsMax =  -2.49645175642854E-07  8.35381675511217E+00
 cg2d: Sum(rhs),rhsMax =  -2.49595025536564E-07  8.35548736188202E+00
 cg2d: Sum(rhs),rhsMax =  -2.49540875074672E-07  8.35730476743729E+00
 cg2d: Sum(rhs),rhsMax =  -2.49482035030724E-07  8.35926164070414E+00
 cg2d: Sum(rhs),rhsMax =  -2.49419819908780E-07  8.36135002375845E+00
 cg2d: Sum(rhs),rhsMax =  -2.49353568904098E-07  8.36356151790629E+00
 EXTERNAL_FIELDS_LOAD, it=   3600630 : Reading new data, i0,i1=   11   12 (prev=   10   11 )
 DIC_FIELDS_LOAD, it=   3600630 : Reading new data, i0,i1=   11   12 (prev=   10   11 )
 cg2d: Sum(rhs),rhsMax =  -2.49283999664840E-07  8.36588746134833E+00
 cg2d: Sum(rhs),rhsMax =  -2.49212149583400E-07  8.36830171267966E+00
 cg2d: Sum(rhs),rhsMax =  -2.49137990238069E-07  8.37078382670868E+00
 cg2d: Sum(rhs),rhsMax =  -2.49062694024360E-07  8.37331347128018E+00
 cg2d: Sum(rhs),rhsMax =  -2.48986417261676E-07  8.37587083487809E+00
 cg2d: Sum(rhs),rhsMax =  -2.48910055233864E-07  8.37843890797547E+00
 cg2d: Sum(rhs),rhsMax =  -2.48833615046351E-07  8.38100282447941E+00
 cg2d: Sum(rhs),rhsMax =  -2.48757785925591E-07  8.38355008718710E+00
 cg2d: Sum(rhs),rhsMax =  -2.48682930248378E-07  8.38607101327765E+00
 cg2d: Sum(rhs),rhsMax =  -2.48608408526252E-07  8.38855886249661E+00
 cg2d: Sum(rhs),rhsMax =  -2.48536004221478E-07  8.39100987040112E+00
 cg2d: Sum(rhs),rhsMax =  -2.48464210983457E-07  8.39342320470582E+00
 cg2d: Sum(rhs),rhsMax =  -2.48393547508385E-07  8.39580086228628E+00
 cg2d: Sum(rhs),rhsMax =  -2.48323665630323E-07  8.39814747768731E+00
 cg2d: Sum(rhs),rhsMax =  -2.48254892198929E-07  8.40047003473604E+00
 cg2d: Sum(rhs),rhsMax =  -2.48186310614074E-07  8.40277751423481E+00
 cg2d: Sum(rhs),rhsMax =  -2.48117892454047E-07  8.40508048455822E+00
 cg2d: Sum(rhs),rhsMax =  -2.48049687456842E-07  8.40739063604165E+00
 cg2d: Sum(rhs),rhsMax =  -2.47980871392883E-07  8.40972032300375E+00
 cg2d: Sum(rhs),rhsMax =  -2.47910648454308E-07  8.41208213189281E+00
 cg2d: Sum(rhs),rhsMax =  -2.47839537337313E-07  8.41448816606350E+00
 cg2d: Sum(rhs),rhsMax =  -2.47766863026300E-07  8.41694970128980E+00
 cg2d: Sum(rhs),rhsMax =  -2.47691964716523E-07  8.41947813091076E+00
 cg2d: Sum(rhs),rhsMax =  -2.47614714510291E-07  8.42209648974696E+00
 cg2d: Sum(rhs),rhsMax =  -2.47534813979655E-07  8.42482035527151E+00
 cg2d: Sum(rhs),rhsMax =  -2.47451126256237E-07  8.42766351995909E+00
 cg2d: Sum(rhs),rhsMax =  -2.47363992400551E-07  8.43063783312212E+00
 cg2d: Sum(rhs),rhsMax =  -2.47272517128749E-07  8.43375283121391E+00
 cg2d: Sum(rhs),rhsMax =  -2.47176934919935E-07  8.43701559654336E+00
 cg2d: Sum(rhs),rhsMax =  -2.47076883397312E-07  8.44043066353450E+00
 cg2d: Sum(rhs),rhsMax =  -2.46972234663190E-07  8.44400002260639E+00
 cg2d: Sum(rhs),rhsMax =  -2.46863251618379E-07  8.44772316054511E+00
 cg2d: Sum(rhs),rhsMax =  -2.46750062160572E-07  8.45159719138741E+00
 cg2d: Sum(rhs),rhsMax =  -2.46632367861821E-07  8.45561701011588E+00
 cg2d: Sum(rhs),rhsMax =  -2.46511149271100E-07  8.45977551282957E+00
 cg2d: Sum(rhs),rhsMax =  -2.46386285596145E-07  8.46406373659226E+00
 cg2d: Sum(rhs),rhsMax =  -2.46257769731528E-07  8.46847122879392E+00
 cg2d: Sum(rhs),rhsMax =  -2.46126411695968E-07  8.47298635145432E+00
 cg2d: Sum(rhs),rhsMax =  -2.45992481495705E-07  8.47759653567383E+00
 cg2d: Sum(rhs),rhsMax =  -2.45856256242405E-07  8.48228855871733E+00
 cg2d: Sum(rhs),rhsMax =  -2.45718460689659E-07  8.48704884333580E+00
 cg2d: Sum(rhs),rhsMax =  -2.45578725355244E-07  8.49186380279765E+00
 cg2d: Sum(rhs),rhsMax =  -2.45438343426940E-07  8.49672023122521E+00
 cg2d: Sum(rhs),rhsMax =  -2.45297442802439E-07  8.50160566769727E+00
 cg2d: Sum(rhs),rhsMax =  -2.45155710842937E-07  8.50650876168224E+00
 cg2d: Sum(rhs),rhsMax =  -2.45014355471085E-07  8.51141938832254E+00
 cg2d: Sum(rhs),rhsMax =  -2.44872978782951E-07  8.51632882603140E+00
 cg2d: Sum(rhs),rhsMax =  -2.44732156318150E-07  8.52122992574505E+00
 cg2d: Sum(rhs),rhsMax =  -2.44592122555787E-07  8.52611725421215E+00
 cg2d: Sum(rhs),rhsMax =  -2.44452138531415E-07  8.53098720300080E+00
 cg2d: Sum(rhs),rhsMax =  -2.44313056896317E-07  8.53583804386303E+00
 cg2d: Sum(rhs),rhsMax =  -2.44175289765280E-07  8.54066993807463E+00
 cg2d: Sum(rhs),rhsMax =  -2.44037558161381E-07  8.54548489389639E+00
 cg2d: Sum(rhs),rhsMax =  -2.43900487362225E-07  8.55028665503631E+00
 cg2d: Sum(rhs),rhsMax =  -2.43763828677857E-07  8.55508055409759E+00
 cg2d: Sum(rhs),rhsMax =  -2.43627631846266E-07  8.55987334584090E+00
 cg2d: Sum(rhs),rhsMax =  -2.43490916318478E-07  8.56467304589797E+00
 cg2d: Sum(rhs),rhsMax =  -2.43354129736417E-07  8.56948875081293E+00
 cg2d: Sum(rhs),rhsMax =  -2.43216923934142E-07  8.57433041210705E+00
 cg2d: Sum(rhs),rhsMax =  -2.43078602579772E-07  8.57920857075689E+00
 EXTERNAL_FIELDS_LOAD, it=   3600690 : Reading new data, i0,i1=   12    1 (prev=   11   12 )
 DIC_FIELDS_LOAD, it=   3600690 : Reading new data, i0,i1=   12    1 (prev=   11   12 )
 cg2d: Sum(rhs),rhsMax =  -2.42939044881041E-07  8.58413406052202E+00
 cg2d: Sum(rhs),rhsMax =  -2.42799337968336E-07  8.58909115986565E+00
 cg2d: Sum(rhs),rhsMax =  -2.42658693139219E-07  8.59407439112439E+00
 cg2d: Sum(rhs),rhsMax =  -2.42517621984462E-07  8.59907838916988E+00
 cg2d: Sum(rhs),rhsMax =  -2.42376209769191E-07  8.60409812483420E+00
 cg2d: Sum(rhs),rhsMax =  -2.42234591496526E-07  8.60912903142987E+00
 cg2d: Sum(rhs),rhsMax =  -2.42093065594418E-07  8.61416710086381E+00
 cg2d: Sum(rhs),rhsMax =  -2.41951582324873E-07  8.61920891727868E+00
 cg2d: Sum(rhs),rhsMax =  -2.41810418799560E-07  8.62425159962176E+00
 cg2d: Sum(rhs),rhsMax =  -2.41669411593648E-07  8.62929265748306E+00
 cg2d: Sum(rhs),rhsMax =  -2.41528212541198E-07  8.63432985252268E+00
 cg2d: Sum(rhs),rhsMax =  -2.41388200095116E-07  8.63936110467875E+00
 cg2d: Sum(rhs),rhsMax =  -2.41247725796256E-07  8.64438452071694E+00
 cg2d: Sum(rhs),rhsMax =  -2.41107890985859E-07  8.64939845502298E+00
 cg2d: Sum(rhs),rhsMax =  -2.40969008302727E-07  8.65440163740473E+00
 cg2d: Sum(rhs),rhsMax =  -2.40829955089339E-07  8.65939341167613E+00
 cg2d: Sum(rhs),rhsMax =  -2.40691825581507E-07  8.66437380926046E+00
 cg2d: Sum(rhs),rhsMax =  -2.40553994501624E-07  8.66934351194661E+00
 cg2d: Sum(rhs),rhsMax =  -2.40416618169093E-07  8.67430280369745E+00
 cg2d: Sum(rhs),rhsMax =  -2.40279604213356E-07  8.67925548690400E+00
 cg2d: Sum(rhs),rhsMax =  -2.40142895790996E-07  8.68420665617491E+00
 cg2d: Sum(rhs),rhsMax =  -2.40006130525217E-07  8.68916145963729E+00
 cg2d: Sum(rhs),rhsMax =  -2.39869450524566E-07  8.69412491880011E+00
 cg2d: Sum(rhs),rhsMax =  -2.39731853923786E-07  8.69910175166197E+00
 cg2d: Sum(rhs),rhsMax =  -2.39594477591254E-07  8.70409625463335E+00
 cg2d: Sum(rhs),rhsMax =  -2.39456610984234E-07  8.70911224623719E+00
 cg2d: Sum(rhs),rhsMax =  -2.39318524108967E-07  8.71415300952969E+00
 cg2d: Sum(rhs),rhsMax =  -2.39179819061519E-07  8.71922107400600E+00
 cg2d: Sum(rhs),rhsMax =  -2.39039941618557E-07  8.72431810322763E+00
 cg2d: Sum(rhs),rhsMax =  -2.38899893645339E-07  8.72944491034874E+00
 cg2d: Sum(rhs),rhsMax =  -2.38758616433188E-07  8.73460150471141E+00
 cg2d: Sum(rhs),rhsMax =  -2.38616948422532E-07  8.73978715591014E+00
 cg2d: Sum(rhs),rhsMax =  -2.38474669345123E-07  8.74500048107581E+00
 cg2d: Sum(rhs),rhsMax =  -2.38332305002587E-07  8.75023954225340E+00
 cg2d: Sum(rhs),rhsMax =  -2.38189322487870E-07  8.75550195605016E+00
 cg2d: Sum(rhs),rhsMax =  -2.38046069966913E-07  8.76078500778492E+00
 cg2d: Sum(rhs),rhsMax =  -2.37902014532665E-07  8.76608574658582E+00
 cg2d: Sum(rhs),rhsMax =  -2.37757973309272E-07  8.77140108996162E+00
 cg2d: Sum(rhs),rhsMax =  -2.37613583919938E-07  8.77672791128606E+00
 cg2d: Sum(rhs),rhsMax =  -2.37469464536844E-07  8.78206311907848E+00
(PID.TID 0000.0001) Did not write pickup because writePickupAtEnd = FALSE
 cg2d: Sum(rhs),rhsMax =  -2.44783471714527E-07  8.51897418323859E+00
 cg2d: Sum(rhs),rhsMax =  -2.44957739425899E-07  8.51294224856493E+00
 cg2d: Sum(rhs),rhsMax =  -2.45131850817870E-07  8.50690564885983E+00
 cg2d: Sum(rhs),rhsMax =  -2.45306104318388E-07  8.50087010325378E+00
 cg2d: Sum(rhs),rhsMax =  -2.45480840987966E-07  8.49484030788981E+00
 cg2d: Sum(rhs),rhsMax =  -2.45655421338142E-07  8.48882091652209E+00
 cg2d: Sum(rhs),rhsMax =  -2.45829966161182E-07  8.48281648598470E+00
 cg2d: Sum(rhs),rhsMax =  -2.46003693860075E-07  8.47683141604414E+00
 cg2d: Sum(rhs),rhsMax =  -2.46177087603883E-07  8.47086986481543E+00
 cg2d: Sum(rhs),rhsMax =  -2.46350516874827E-07  8.46493565647207E+00
 EXTERNAL_FIELDS_LOAD, it=   3600570 : Reading new data, i0,i1=   10   11 (prev=    9    1 )
 DIC_FIELDS_LOAD, it=   3600570 : Reading new data, i0,i1=   10   11 (prev=    9   10 )
 cg2d: Sum(rhs),rhsMax =  -2.46522958491369E-07  8.45903217397129E+00
 cg2d: Sum(rhs),rhsMax =  -2.46693353744831E-07  8.45319776100662E+00
 cg2d: Sum(rhs),rhsMax =  -2.46861752373206E-07  8.44745780781015E+00
 cg2d: Sum(rhs),rhsMax =  -2.47026463284783E-07  8.44183689308228E+00
 cg2d: Sum(rhs),rhsMax =  -2.47187230684176E-07  8.43635808123200E+00
 cg2d: Sum(rhs),rhsMax =  -2.47343706405445E-07  8.43104233122613E+00
 cg2d: Sum(rhs),rhsMax =  -2.47495002270171E-07  8.42590806033104E+00
 cg2d: Sum(rhs),rhsMax =  -2.47640862482967E-07  8.42097079337588E+00
 cg2d: Sum(rhs),rhsMax =  -2.47780199913450E-07  8.41624287670950E+00
 cg2d: Sum(rhs),rhsMax =  -2.47913433781832E-07  8.41173327531019E+00
 cg2d: Sum(rhs),rhsMax =  -2.48040628036961E-07  8.40744751803125E+00
 cg2d: Sum(rhs),rhsMax =  -2.48160993976398E-07  8.40338776690083E+00
 cg2d: Sum(rhs),rhsMax =  -2.48274659497838E-07  8.39955295260282E+00
 cg2d: Sum(rhs),rhsMax =  -2.48382001188929E-07  8.39593904397255E+00
 cg2d: Sum(rhs),rhsMax =  -2.48483310372194E-07  8.39253935780259E+00
 cg2d: Sum(rhs),rhsMax =  -2.48578452044512E-07  8.38934486115791E+00
 cg2d: Sum(rhs),rhsMax =  -2.48667660684987E-07  8.38634455564178E+00
 cg2d: Sum(rhs),rhsMax =  -2.48751881315457E-07  8.38352593271183E+00
 cg2d: Sum(rhs),rhsMax =  -2.48830964721947E-07  8.38087545512510E+00
 cg2d: Sum(rhs),rhsMax =  -2.48905820399159E-07  8.37837910210342E+00
 cg2d: Sum(rhs),rhsMax =  -2.48976242289700E-07  8.37602295704436E+00
 cg2d: Sum(rhs),rhsMax =  -2.49042699351776E-07  8.37379380797618E+00
 cg2d: Sum(rhs),rhsMax =  -2.49106562932866E-07  8.37167959361354E+00
 cg2d: Sum(rhs),rhsMax =  -2.49166241417242E-07  8.36966926830838E+00
 cg2d: Sum(rhs),rhsMax =  -2.49223795378839E-07  8.36775333408158E+00
 cg2d: Sum(rhs),rhsMax =  -2.49279089814536E-07  8.36592380342866E+00
 cg2d: Sum(rhs),rhsMax =  -2.49331364443606E-07  8.36417416133343E+00
 cg2d: Sum(rhs),rhsMax =  -2.49381677974725E-07  8.36249928728285E+00
 cg2d: Sum(rhs),rhsMax =  -2.49429696452808E-07  8.36089538401903E+00
 cg2d: Sum(rhs),rhsMax =  -2.49476237002000E-07  8.35935991281295E+00
 cg2d: Sum(rhs),rhsMax =  -2.49520162753925E-07  8.35789146030961E+00
 cg2d: Sum(rhs),rhsMax =  -2.49562525311831E-07  8.35648964985200E+00
 cg2d: Sum(rhs),rhsMax =  -2.49602841506658E-07  8.35515513914879E+00
 cg2d: Sum(rhs),rhsMax =  -2.49640748961610E-07  8.35388971117527E+00
 cg2d: Sum(rhs),rhsMax =  -2.49676844532587E-07  8.35269628610801E+00
 cg2d: Sum(rhs),rhsMax =  -2.49710517152835E-07  8.35157887088272E+00
 cg2d: Sum(rhs),rhsMax =  -2.49741731295217E-07  8.35054250509572E+00
 cg2d: Sum(rhs),rhsMax =  -2.49770394589177E-07  8.34959323059716E+00
 cg2d: Sum(rhs),rhsMax =  -2.49796435980443E-07  8.34873810769870E+00
 cg2d: Sum(rhs),rhsMax =  -2.49819045450295E-07  8.34798512227025E+00
 cg2d: Sum(rhs),rhsMax =  -2.49838244315015E-07  8.34734290261435E+00
 cg2d: Sum(rhs),rhsMax =  -2.49853975731185E-07  8.34682030367283E+00
 cg2d: Sum(rhs),rhsMax =  -2.49866459967052E-07  8.34642602050246E+00
 cg2d: Sum(rhs),rhsMax =  -2.49874005930906E-07  8.34616833018179E+00
 cg2d: Sum(rhs),rhsMax =  -2.49877167846080E-07  8.34605492416921E+00
 cg2d: Sum(rhs),rhsMax =  -2.49876372038216E-07  8.34609271647880E+00
 cg2d: Sum(rhs),rhsMax =  -2.49870495849791E-07  8.34628766951383E+00
 cg2d: Sum(rhs),rhsMax =  -2.49859972711874E-07  8.34664465917166E+00
 cg2d: Sum(rhs),rhsMax =  -2.49844404720534E-07  8.34716735659488E+00
 cg2d: Sum(rhs),rhsMax =  -2.49823550291239E-07  8.34785810988885E+00
 cg2d: Sum(rhs),rhsMax =  -2.49798063123308E-07  8.34871787621402E+00
 cg2d: Sum(rhs),rhsMax =  -2.49766976878618E-07  8.34974617920463E+00
 cg2d: Sum(rhs),rhsMax =  -2.49731257895291E-07  8.35094113608330E+00
 cg2d: Sum(rhs),rhsMax =  -2.49690643272515E-07  8.35229948619608E+00
 cg2d: Sum(rhs),rhsMax =  -2.49645175642854E-07  8.35381675511217E+00
 cg2d: Sum(rhs),rhsMax =  -2.49595025536564E-07  8.35548736188202E+00
 cg2d: Sum(rhs),rhsMax =  -2.49540875074672E-07  8.35730476743729E+00
 cg2d: Sum(rhs),rhsMax =  -2.49482035030724E-07  8.35926164070414E+00
 cg2d: Sum(rhs),rhsMax =  -2.49419819908780E-07  8.36135002375845E+00
 cg2d: Sum(rhs),rhsMax =  -2.49353568904098E-07  8.36356151790629E+00
 EXTERNAL_FIELDS_LOAD, it=   3600630 : Reading new data, i0,i1=   11   12 (prev=   10   11 )
 DIC_FIELDS_LOAD, it=   3600630 : Reading new data, i0,i1=   11   12 (prev=   10   11 )
 cg2d: Sum(rhs),rhsMax =  -2.49283999664840E-07  8.36588746134833E+00
 cg2d: Sum(rhs),rhsMax =  -2.49212149583400E-07  8.36830171267966E+00
 cg2d: Sum(rhs),rhsMax =  -2.49137990238069E-07  8.37078382670868E+00
 cg2d: Sum(rhs),rhsMax =  -2.49062694024360E-07  8.37331347128018E+00
 cg2d: Sum(rhs),rhsMax =  -2.48986417261676E-07  8.37587083487809E+00
 cg2d: Sum(rhs),rhsMax =  -2.48910055233864E-07  8.37843890797547E+00
 cg2d: Sum(rhs),rhsMax =  -2.48833615046351E-07  8.38100282447941E+00
 cg2d: Sum(rhs),rhsMax =  -2.48757785925591E-07  8.38355008718710E+00
 cg2d: Sum(rhs),rhsMax =  -2.48682930248378E-07  8.38607101327765E+00
 cg2d: Sum(rhs),rhsMax =  -2.48608408526252E-07  8.38855886249661E+00
 cg2d: Sum(rhs),rhsMax =  -2.48536004221478E-07  8.39100987040112E+00
 cg2d: Sum(rhs),rhsMax =  -2.48464210983457E-07  8.39342320470582E+00
 cg2d: Sum(rhs),rhsMax =  -2.48393547508385E-07  8.39580086228628E+00
 cg2d: Sum(rhs),rhsMax =  -2.48323665630323E-07  8.39814747768731E+00
 cg2d: Sum(rhs),rhsMax =  -2.48254892198929E-07  8.40047003473604E+00
 cg2d: Sum(rhs),rhsMax =  -2.48186310614074E-07  8.40277751423481E+00
 cg2d: Sum(rhs),rhsMax =  -2.48117892454047E-07  8.40508048455822E+00
 cg2d: Sum(rhs),rhsMax =  -2.48049687456842E-07  8.40739063604165E+00
 cg2d: Sum(rhs),rhsMax =  -2.47980871392883E-07  8.40972032300375E+00
 cg2d: Sum(rhs),rhsMax =  -2.47910648454308E-07  8.41208213189281E+00
 cg2d: Sum(rhs),rhsMax =  -2.47839537337313E-07  8.41448816606350E+00
 cg2d: Sum(rhs),rhsMax =  -2.47766863026300E-07  8.41694970128980E+00
 cg2d: Sum(rhs),rhsMax =  -2.47691964716523E-07  8.41947813091076E+00
 cg2d: Sum(rhs),rhsMax =  -2.47614714510291E-07  8.42209648974696E+00
 cg2d: Sum(rhs),rhsMax =  -2.47534813979655E-07  8.42482035527151E+00
 cg2d: Sum(rhs),rhsMax =  -2.47451126256237E-07  8.42766351995909E+00
 cg2d: Sum(rhs),rhsMax =  -2.47363992400551E-07  8.43063783312212E+00
 cg2d: Sum(rhs),rhsMax =  -2.47272517128749E-07  8.43375283121391E+00
 cg2d: Sum(rhs),rhsMax =  -2.47176934919935E-07  8.43701559654336E+00
 cg2d: Sum(rhs),rhsMax =  -2.47076883397312E-07  8.44043066353450E+00
 cg2d: Sum(rhs),rhsMax =  -2.46972234663190E-07  8.44400002260639E+00
 cg2d: Sum(rhs),rhsMax =  -2.46863251618379E-07  8.44772316054511E+00
 cg2d: Sum(rhs),rhsMax =  -2.46750062160572E-07  8.45159719138741E+00
 cg2d: Sum(rhs),rhsMax =  -2.46632367861821E-07  8.45561701011588E+00
 cg2d: Sum(rhs),rhsMax =  -2.46511149271100E-07  8.45977551282957E+00
 cg2d: Sum(rhs),rhsMax =  -2.46386285596145E-07  8.46406373659226E+00
 cg2d: Sum(rhs),rhsMax =  -2.46257769731528E-07  8.46847122879392E+00
 cg2d: Sum(rhs),rhsMax =  -2.46126411695968E-07  8.47298635145432E+00
 cg2d: Sum(rhs),rhsMax =  -2.45992481495705E-07  8.47759653567383E+00
 cg2d: Sum(rhs),rhsMax =  -2.45856256242405E-07  8.48228855871733E+00
 cg2d: Sum(rhs),rhsMax =  -2.45718460689659E-07  8.48704884333580E+00
 cg2d: Sum(rhs),rhsMax =  -2.45578725355244E-07  8.49186380279765E+00
 cg2d: Sum(rhs),rhsMax =  -2.45438343426940E-07  8.49672023122521E+00
 cg2d: Sum(rhs),rhsMax =  -2.45297442802439E-07  8.50160566769727E+00
 cg2d: Sum(rhs),rhsMax =  -2.45155710842937E-07  8.50650876168224E+00
 cg2d: Sum(rhs),rhsMax =  -2.45014355471085E-07  8.51141938832254E+00
 cg2d: Sum(rhs),rhsMax =  -2.44872978782951E-07  8.51632882603140E+00
 cg2d: Sum(rhs),rhsMax =  -2.44732156318150E-07  8.52122992574505E+00
 cg2d: Sum(rhs),rhsMax =  -2.44592122555787E-07  8.52611725421215E+00
 cg2d: Sum(rhs),rhsMax =  -2.44452138531415E-07  8.53098720300080E+00
 cg2d: Sum(rhs),rhsMax =  -2.44313056896317E-07  8.53583804386303E+00
 cg2d: Sum(rhs),rhsMax =  -2.44175289765280E-07  8.54066993807463E+00
 cg2d: Sum(rhs),rhsMax =  -2.44037558161381E-07  8.54548489389639E+00
 cg2d: Sum(rhs),rhsMax =  -2.43900487362225E-07  8.55028665503631E+00
 cg2d: Sum(rhs),rhsMax =  -2.43763828677857E-07  8.55508055409759E+00
 cg2d: Sum(rhs),rhsMax =  -2.43627631846266E-07  8.55987334584090E+00
 cg2d: Sum(rhs),rhsMax =  -2.43490916318478E-07  8.56467304589797E+00
 cg2d: Sum(rhs),rhsMax =  -2.43354129736417E-07  8.56948875081293E+00
 cg2d: Sum(rhs),rhsMax =  -2.43216923934142E-07  8.57433041210705E+00
 cg2d: Sum(rhs),rhsMax =  -2.43078602579772E-07  8.57920857075689E+00
 EXTERNAL_FIELDS_LOAD, it=   3600690 : Reading new data, i0,i1=   12    1 (prev=   11   12 )
 DIC_FIELDS_LOAD, it=   3600690 : Reading new data, i0,i1=   12    1 (prev=   11   12 )
 cg2d: Sum(rhs),rhsMax =  -2.42939044881041E-07  8.58413406052202E+00
 cg2d: Sum(rhs),rhsMax =  -2.42799337968336E-07  8.58909115986565E+00
 cg2d: Sum(rhs),rhsMax =  -2.42658693139219E-07  8.59407439112439E+00
 cg2d: Sum(rhs),rhsMax =  -2.42517621984462E-07  8.59907838916988E+00
 cg2d: Sum(rhs),rhsMax =  -2.42376209769191E-07  8.60409812483420E+00
 cg2d: Sum(rhs),rhsMax =  -2.42234591496526E-07  8.60912903142987E+00
 cg2d: Sum(rhs),rhsMax =  -2.42093065594418E-07  8.61416710086381E+00
 cg2d: Sum(rhs),rhsMax =  -2.41951582324873E-07  8.61920891727868E+00
 cg2d: Sum(rhs),rhsMax =  -2.41810418799560E-07  8.62425159962176E+00
 cg2d: Sum(rhs),rhsMax =  -2.41669411593648E-07  8.62929265748306E+00
 cg2d: Sum(rhs),rhsMax =  -2.41528212541198E-07  8.63432985252268E+00
 cg2d: Sum(rhs),rhsMax =  -2.41388200095116E-07  8.63936110467875E+00
 cg2d: Sum(rhs),rhsMax =  -2.41247725796256E-07  8.64438452071694E+00
 cg2d: Sum(rhs),rhsMax =  -2.41107890985859E-07  8.64939845502298E+00
 cg2d: Sum(rhs),rhsMax =  -2.40969008302727E-07  8.65440163740473E+00
 cg2d: Sum(rhs),rhsMax =  -2.40829955089339E-07  8.65939341167613E+00
 cg2d: Sum(rhs),rhsMax =  -2.40691825581507E-07  8.66437380926046E+00
 cg2d: Sum(rhs),rhsMax =  -2.40553994501624E-07  8.66934351194661E+00
 cg2d: Sum(rhs),rhsMax =  -2.40416618169093E-07  8.67430280369745E+00
 cg2d: Sum(rhs),rhsMax =  -2.40279604213356E-07  8.67925548690400E+00
 cg2d: Sum(rhs),rhsMax =  -2.40142895790996E-07  8.68420665617491E+00
 cg2d: Sum(rhs),rhsMax =  -2.40006130525217E-07  8.68916145963729E+00
 cg2d: Sum(rhs),rhsMax =  -2.39869450524566E-07  8.69412491880011E+00
 cg2d: Sum(rhs),rhsMax =  -2.39731853923786E-07  8.69910175166197E+00
 cg2d: Sum(rhs),rhsMax =  -2.39594477591254E-07  8.70409625463335E+00
 cg2d: Sum(rhs),rhsMax =  -2.39456610984234E-07  8.70911224623719E+00
 cg2d: Sum(rhs),rhsMax =  -2.39318524108967E-07  8.71415300952969E+00
 cg2d: Sum(rhs),rhsMax =  -2.39179819061519E-07  8.71922107400600E+00
 cg2d: Sum(rhs),rhsMax =  -2.39039941618557E-07  8.72431810322763E+00
 cg2d: Sum(rhs),rhsMax =  -2.38899893645339E-07  8.72944491034874E+00
 cg2d: Sum(rhs),rhsMax =  -2.38758616433188E-07  8.73460150471141E+00
 cg2d: Sum(rhs),rhsMax =  -2.38616948422532E-07  8.73978715591014E+00
 cg2d: Sum(rhs),rhsMax =  -2.38474669345123E-07  8.74500048107581E+00
 cg2d: Sum(rhs),rhsMax =  -2.38332305002587E-07  8.75023954225340E+00
 cg2d: Sum(rhs),rhsMax =  -2.38189322487870E-07  8.75550195605016E+00
 cg2d: Sum(rhs),rhsMax =  -2.38046069966913E-07  8.76078500778492E+00
 cg2d: Sum(rhs),rhsMax =  -2.37902014532665E-07  8.76608574658582E+00
 cg2d: Sum(rhs),rhsMax =  -2.37757973309272E-07  8.77140108996162E+00
 cg2d: Sum(rhs),rhsMax =  -2.37613583919938E-07  8.77672791128606E+00
 cg2d: Sum(rhs),rhsMax =  -2.37469464536844E-07  8.78206311907848E+00
(PID.TID 0000.0001) Did not write pickup because writePickupAtEnd = FALSE
 cg2d: Sum(rhs),rhsMax =  -2.44783471714527E-07  8.51897418323859E+00
 cg2d: Sum(rhs),rhsMax =  -2.44957739425899E-07  8.51294224856493E+00
 cg2d: Sum(rhs),rhsMax =  -2.45131850817870E-07  8.50690564885983E+00
 cg2d: Sum(rhs),rhsMax =  -2.45306104318388E-07  8.50087010325378E+00
 cg2d: Sum(rhs),rhsMax =  -2.45480840987966E-07  8.49484030788981E+00
 cg2d: Sum(rhs),rhsMax =  -2.45655421338142E-07  8.48882091652209E+00
 cg2d: Sum(rhs),rhsMax =  -2.45829966161182E-07  8.48281648598470E+00
 cg2d: Sum(rhs),rhsMax =  -2.46003693860075E-07  8.47683141604414E+00
 cg2d: Sum(rhs),rhsMax =  -2.46177087603883E-07  8.47086986481543E+00
 cg2d: Sum(rhs),rhsMax =  -2.46350516874827E-07  8.46493565647207E+00
 EXTERNAL_FIELDS_LOAD, it=   3600570 : Reading new data, i0,i1=   10   11 (prev=    9    1 )
 DIC_FIELDS_LOAD, it=   3600570 : Reading new data, i0,i1=   10   11 (prev=    9   10 )
 cg2d: Sum(rhs),rhsMax =  -2.46522958491369E-07  8.45903217397129E+00
 cg2d: Sum(rhs),rhsMax =  -2.46693353744831E-07  8.45319776100662E+00
 cg2d: Sum(rhs),rhsMax =  -2.46861752373206E-07  8.44745780781015E+00
 cg2d: Sum(rhs),rhsMax =  -2.47026463284783E-07  8.44183689308228E+00
 cg2d: Sum(rhs),rhsMax =  -2.47187230684176E-07  8.43635808123200E+00
 cg2d: Sum(rhs),rhsMax =  -2.47343706405445E-07  8.43104233122613E+00
 cg2d: Sum(rhs),rhsMax =  -2.47495002270171E-07  8.42590806033104E+00
 cg2d: Sum(rhs),rhsMax =  -2.47640862482967E-07  8.42097079337588E+00
 cg2d: Sum(rhs),rhsMax =  -2.47780199913450E-07  8.41624287670950E+00
 cg2d: Sum(rhs),rhsMax =  -2.47913433781832E-07  8.41173327531019E+00
 cg2d: Sum(rhs),rhsMax =  -2.48040628036961E-07  8.40744751803125E+00
 cg2d: Sum(rhs),rhsMax =  -2.48160993976398E-07  8.40338776690083E+00
 cg2d: Sum(rhs),rhsMax =  -2.48274659497838E-07  8.39955295260282E+00
 cg2d: Sum(rhs),rhsMax =  -2.48382001188929E-07  8.39593904397255E+00
 cg2d: Sum(rhs),rhsMax =  -2.48483310372194E-07  8.39253935780259E+00
 cg2d: Sum(rhs),rhsMax =  -2.48578452044512E-07  8.38934486115791E+00
 cg2d: Sum(rhs),rhsMax =  -2.48667660684987E-07  8.38634455564178E+00
 cg2d: Sum(rhs),rhsMax =  -2.48751881315457E-07  8.38352593271183E+00
 cg2d: Sum(rhs),rhsMax =  -2.48830964721947E-07  8.38087545512510E+00
 cg2d: Sum(rhs),rhsMax =  -2.48905820399159E-07  8.37837910210342E+00
 cg2d: Sum(rhs),rhsMax =  -2.48976242289700E-07  8.37602295704436E+00
 cg2d: Sum(rhs),rhsMax =  -2.49042699351776E-07  8.37379380797618E+00
 cg2d: Sum(rhs),rhsMax =  -2.49106562932866E-07  8.37167959361354E+00
 cg2d: Sum(rhs),rhsMax =  -2.49166241417242E-07  8.36966926830838E+00
 cg2d: Sum(rhs),rhsMax =  -2.49223795378839E-07  8.36775333408158E+00
 cg2d: Sum(rhs),rhsMax =  -2.49279089814536E-07  8.36592380342866E+00
 cg2d: Sum(rhs),rhsMax =  -2.49331364443606E-07  8.36417416133343E+00
 cg2d: Sum(rhs),rhsMax =  -2.49381677974725E-07  8.36249928728285E+00
 cg2d: Sum(rhs),rhsMax =  -2.49429696452808E-07  8.36089538401903E+00
 cg2d: Sum(rhs),rhsMax =  -2.49476237002000E-07  8.35935991281295E+00
 cg2d: Sum(rhs),rhsMax =  -2.49520162753925E-07  8.35789146030961E+00
 cg2d: Sum(rhs),rhsMax =  -2.49562525311831E-07  8.35648964985200E+00
 cg2d: Sum(rhs),rhsMax =  -2.49602841506658E-07  8.35515513914879E+00
 cg2d: Sum(rhs),rhsMax =  -2.49640748961610E-07  8.35388971117527E+00
 cg2d: Sum(rhs),rhsMax =  -2.49676844532587E-07  8.35269628610801E+00
 cg2d: Sum(rhs),rhsMax =  -2.49710517152835E-07  8.35157887088272E+00
 cg2d: Sum(rhs),rhsMax =  -2.49741731295217E-07  8.35054250509572E+00
 cg2d: Sum(rhs),rhsMax =  -2.49770394589177E-07  8.34959323059716E+00
 cg2d: Sum(rhs),rhsMax =  -2.49796435980443E-07  8.34873810769870E+00
 cg2d: Sum(rhs),rhsMax =  -2.49819045450295E-07  8.34798512227025E+00
 cg2d: Sum(rhs),rhsMax =  -2.49838244315015E-07  8.34734290261435E+00
 cg2d: Sum(rhs),rhsMax =  -2.49853975731185E-07  8.34682030367283E+00
 cg2d: Sum(rhs),rhsMax =  -2.49866459967052E-07  8.34642602050246E+00
 cg2d: Sum(rhs),rhsMax =  -2.49874005930906E-07  8.34616833018179E+00
 cg2d: Sum(rhs),rhsMax =  -2.49877167846080E-07  8.34605492416921E+00
 cg2d: Sum(rhs),rhsMax =  -2.49876372038216E-07  8.34609271647880E+00
 cg2d: Sum(rhs),rhsMax =  -2.49870495849791E-07  8.34628766951383E+00
 cg2d: Sum(rhs),rhsMax =  -2.49859972711874E-07  8.34664465917166E+00
 cg2d: Sum(rhs),rhsMax =  -2.49844404720534E-07  8.34716735659488E+00
 cg2d: Sum(rhs),rhsMax =  -2.49823550291239E-07  8.34785810988885E+00
 cg2d: Sum(rhs),rhsMax =  -2.49798063123308E-07  8.34871787621402E+00
 cg2d: Sum(rhs),rhsMax =  -2.49766976878618E-07  8.34974617920463E+00
 cg2d: Sum(rhs),rhsMax =  -2.49731257895291E-07  8.35094113608330E+00
 cg2d: Sum(rhs),rhsMax =  -2.49690643272515E-07  8.35229948619608E+00
 cg2d: Sum(rhs),rhsMax =  -2.49645175642854E-07  8.35381675511217E+00
 cg2d: Sum(rhs),rhsMax =  -2.49595025536564E-07  8.35548736188202E+00
 cg2d: Sum(rhs),rhsMax =  -2.49540875074672E-07  8.35730476743729E+00
 cg2d: Sum(rhs),rhsMax =  -2.49482035030724E-07  8.35926164070414E+00
 cg2d: Sum(rhs),rhsMax =  -2.49419819908780E-07  8.36135002375845E+00
 cg2d: Sum(rhs),rhsMax =  -2.49353568904098E-07  8.36356151790629E+00
 EXTERNAL_FIELDS_LOAD, it=   3600630 : Reading new data, i0,i1=   11   12 (prev=   10   11 )
 DIC_FIELDS_LOAD, it=   3600630 : Reading new data, i0,i1=   11   12 (prev=   10   11 )
 cg2d: Sum(rhs),rhsMax =  -2.49283999664840E-07  8.36588746134833E+00
 cg2d: Sum(rhs),rhsMax =  -2.49212149583400E-07  8.36830171267966E+00
 cg2d: Sum(rhs),rhsMax =  -2.49137990238069E-07  8.37078382670868E+00
 cg2d: Sum(rhs),rhsMax =  -2.49062694024360E-07  8.37331347128018E+00
 cg2d: Sum(rhs),rhsMax =  -2.48986417261676E-07  8.37587083487809E+00
 cg2d: Sum(rhs),rhsMax =  -2.48910055233864E-07  8.37843890797547E+00
 cg2d: Sum(rhs),rhsMax =  -2.48833615046351E-07  8.38100282447941E+00
 cg2d: Sum(rhs),rhsMax =  -2.48757785925591E-07  8.38355008718710E+00
 cg2d: Sum(rhs),rhsMax =  -2.48682930248378E-07  8.38607101327765E+00
 cg2d: Sum(rhs),rhsMax =  -2.48608408526252E-07  8.38855886249661E+00
 cg2d: Sum(rhs),rhsMax =  -2.48536004221478E-07  8.39100987040112E+00
 cg2d: Sum(rhs),rhsMax =  -2.48464210983457E-07  8.39342320470582E+00
 cg2d: Sum(rhs),rhsMax =  -2.48393547508385E-07  8.39580086228628E+00
 cg2d: Sum(rhs),rhsMax =  -2.48323665630323E-07  8.39814747768731E+00
 cg2d: Sum(rhs),rhsMax =  -2.48254892198929E-07  8.40047003473604E+00
 cg2d: Sum(rhs),rhsMax =  -2.48186310614074E-07  8.40277751423481E+00
 cg2d: Sum(rhs),rhsMax =  -2.48117892454047E-07  8.40508048455822E+00
 cg2d: Sum(rhs),rhsMax =  -2.48049687456842E-07  8.40739063604165E+00
 cg2d: Sum(rhs),rhsMax =  -2.47980871392883E-07  8.40972032300375E+00
 cg2d: Sum(rhs),rhsMax =  -2.47910648454308E-07  8.41208213189281E+00
 cg2d: Sum(rhs),rhsMax =  -2.47839537337313E-07  8.41448816606350E+00
 cg2d: Sum(rhs),rhsMax =  -2.47766863026300E-07  8.41694970128980E+00
 cg2d: Sum(rhs),rhsMax =  -2.47691964716523E-07  8.41947813091076E+00
 cg2d: Sum(rhs),rhsMax =  -2.47614714510291E-07  8.42209648974696E+00
 cg2d: Sum(rhs),rhsMax =  -2.47534813979655E-07  8.42482035527151E+00
 cg2d: Sum(rhs),rhsMax =  -2.47451126256237E-07  8.42766351995909E+00
 cg2d: Sum(rhs),rhsMax =  -2.47363992400551E-07  8.43063783312212E+00
 cg2d: Sum(rhs),rhsMax =  -2.47272517128749E-07  8.43375283121391E+00
 cg2d: Sum(rhs),rhsMax =  -2.47176934919935E-07  8.43701559654336E+00
 cg2d: Sum(rhs),rhsMax =  -2.47076883397312E-07  8.44043066353450E+00
 cg2d: Sum(rhs),rhsMax =  -2.46972234663190E-07  8.44400002260639E+00
 cg2d: Sum(rhs),rhsMax =  -2.46863251618379E-07  8.44772316054511E+00
 cg2d: Sum(rhs),rhsMax =  -2.46750062160572E-07  8.45159719138741E+00
 cg2d: Sum(rhs),rhsMax =  -2.46632367861821E-07  8.45561701011588E+00
 cg2d: Sum(rhs),rhsMax =  -2.46511149271100E-07  8.45977551282957E+00
 cg2d: Sum(rhs),rhsMax =  -2.46386285596145E-07  8.46406373659226E+00
 cg2d: Sum(rhs),rhsMax =  -2.46257769731528E-07  8.46847122879392E+00
 cg2d: Sum(rhs),rhsMax =  -2.46126411695968E-07  8.47298635145432E+00
 cg2d: Sum(rhs),rhsMax =  -2.45992481495705E-07  8.47759653567383E+00
 cg2d: Sum(rhs),rhsMax =  -2.45856256242405E-07  8.48228855871733E+00
 cg2d: Sum(rhs),rhsMax =  -2.45718460689659E-07  8.48704884333580E+00
 cg2d: Sum(rhs),rhsMax =  -2.45578725355244E-07  8.49186380279765E+00
 cg2d: Sum(rhs),rhsMax =  -2.45438343426940E-07  8.49672023122521E+00
 cg2d: Sum(rhs),rhsMax =  -2.45297442802439E-07  8.50160566769727E+00
 cg2d: Sum(rhs),rhsMax =  -2.45155710842937E-07  8.50650876168224E+00
 cg2d: Sum(rhs),rhsMax =  -2.45014355471085E-07  8.51141938832254E+00
 cg2d: Sum(rhs),rhsMax =  -2.44872978782951E-07  8.51632882603140E+00
 cg2d: Sum(rhs),rhsMax =  -2.44732156318150E-07  8.52122992574505E+00
 cg2d: Sum(rhs),rhsMax =  -2.44592122555787E-07  8.52611725421215E+00
 cg2d: Sum(rhs),rhsMax =  -2.44452138531415E-07  8.53098720300080E+00
 cg2d: Sum(rhs),rhsMax =  -2.44313056896317E-07  8.53583804386303E+00
 cg2d: Sum(rhs),rhsMax =  -2.44175289765280E-07  8.54066993807463E+00
 cg2d: Sum(rhs),rhsMax =  -2.44037558161381E-07  8.54548489389639E+00
 cg2d: Sum(rhs),rhsMax =  -2.43900487362225E-07  8.55028665503631E+00
 cg2d: Sum(rhs),rhsMax =  -2.43763828677857E-07  8.55508055409759E+00
 cg2d: Sum(rhs),rhsMax =  -2.43627631846266E-07  8.55987334584090E+00
 cg2d: Sum(rhs),rhsMax =  -2.43490916318478E-07  8.56467304589797E+00
 cg2d: Sum(rhs),rhsMax =  -2.43354129736417E-07  8.56948875081293E+00
 cg2d: Sum(rhs),rhsMax =  -2.43216923934142E-07  8.57433041210705E+00
 cg2d: Sum(rhs),rhsMax =  -2.43078602579772E-07  8.57920857075689E+00
 EXTERNAL_FIELDS_LOAD, it=   3600690 : Reading new data, i0,i1=   12    1 (prev=   11   12 )
 DIC_FIELDS_LOAD, it=   3600690 : Reading new data, i0,i1=   12    1 (prev=   11   12 )
 cg2d: Sum(rhs),rhsMax =  -2.42939044881041E-07  8.58413406052202E+00
 cg2d: Sum(rhs),rhsMax =  -2.42799337968336E-07  8.58909115986565E+00
 cg2d: Sum(rhs),rhsMax =  -2.42658693139219E-07  8.59407439112439E+00
 cg2d: Sum(rhs),rhsMax =  -2.42517621984462E-07  8.59907838916988E+00
 cg2d: Sum(rhs),rhsMax =  -2.42376209769191E-07  8.60409812483420E+00
 cg2d: Sum(rhs),rhsMax =  -2.42234591496526E-07  8.60912903142987E+00
 cg2d: Sum(rhs),rhsMax =  -2.42093065594418E-07  8.61416710086381E+00
 cg2d: Sum(rhs),rhsMax =  -2.41951582324873E-07  8.61920891727868E+00
 cg2d: Sum(rhs),rhsMax =  -2.41810418799560E-07  8.62425159962176E+00
 cg2d: Sum(rhs),rhsMax =  -2.41669411593648E-07  8.62929265748306E+00
 cg2d: Sum(rhs),rhsMax =  -2.41528212541198E-07  8.63432985252268E+00
 cg2d: Sum(rhs),rhsMax =  -2.41388200095116E-07  8.63936110467875E+00
 cg2d: Sum(rhs),rhsMax =  -2.41247725796256E-07  8.64438452071694E+00
 cg2d: Sum(rhs),rhsMax =  -2.41107890985859E-07  8.64939845502298E+00
 cg2d: Sum(rhs),rhsMax =  -2.40969008302727E-07  8.65440163740473E+00
 cg2d: Sum(rhs),rhsMax =  -2.40829955089339E-07  8.65939341167613E+00
 cg2d: Sum(rhs),rhsMax =  -2.40691825581507E-07  8.66437380926046E+00
 cg2d: Sum(rhs),rhsMax =  -2.40553994501624E-07  8.66934351194661E+00
 cg2d: Sum(rhs),rhsMax =  -2.40416618169093E-07  8.67430280369745E+00
 cg2d: Sum(rhs),rhsMax =  -2.40279604213356E-07  8.67925548690400E+00
 cg2d: Sum(rhs),rhsMax =  -2.40142895790996E-07  8.68420665617491E+00
 cg2d: Sum(rhs),rhsMax =  -2.40006130525217E-07  8.68916145963729E+00
 cg2d: Sum(rhs),rhsMax =  -2.39869450524566E-07  8.69412491880011E+00
 cg2d: Sum(rhs),rhsMax =  -2.39731853923786E-07  8.69910175166197E+00
 cg2d: Sum(rhs),rhsMax =  -2.39594477591254E-07  8.70409625463335E+00
 cg2d: Sum(rhs),rhsMax =  -2.39456610984234E-07  8.70911224623719E+00
 cg2d: Sum(rhs),rhsMax =  -2.39318524108967E-07  8.71415300952969E+00
 cg2d: Sum(rhs),rhsMax =  -2.39179819061519E-07  8.71922107400600E+00
 cg2d: Sum(rhs),rhsMax =  -2.39039941618557E-07  8.72431810322763E+00
 cg2d: Sum(rhs),rhsMax =  -2.38899893645339E-07  8.72944491034874E+00
 cg2d: Sum(rhs),rhsMax =  -2.38758616433188E-07  8.73460150471141E+00
 cg2d: Sum(rhs),rhsMax =  -2.38616948422532E-07  8.73978715591014E+00
 cg2d: Sum(rhs),rhsMax =  -2.38474669345123E-07  8.74500048107581E+00
 cg2d: Sum(rhs),rhsMax =  -2.38332305002587E-07  8.75023954225340E+00
 cg2d: Sum(rhs),rhsMax =  -2.38189322487870E-07  8.75550195605016E+00
 cg2d: Sum(rhs),rhsMax =  -2.38046069966913E-07  8.76078500778492E+00
 cg2d: Sum(rhs),rhsMax =  -2.37902014532665E-07  8.76608574658582E+00
 cg2d: Sum(rhs),rhsMax =  -2.37757973309272E-07  8.77140108996162E+00
 cg2d: Sum(rhs),rhsMax =  -2.37613583919938E-07  8.77672791128606E+00
 cg2d: Sum(rhs),rhsMax =  -2.37469464536844E-07  8.78206311907848E+00
(PID.TID 0000.0001) Did not write pickup because writePickupAtEnd = FALSE
 cg2d: Sum(rhs),rhsMax =  -2.44783471714527E-07  8.51897418323859E+00
 cg2d: Sum(rhs),rhsMax =  -2.44957739425899E-07  8.51294224856493E+00
 cg2d: Sum(rhs),rhsMax =  -2.45131850817870E-07  8.50690564885983E+00
 cg2d: Sum(rhs),rhsMax =  -2.45306104318388E-07  8.50087010325378E+00
 cg2d: Sum(rhs),rhsMax =  -2.45480840987966E-07  8.49484030788981E+00
 cg2d: Sum(rhs),rhsMax =  -2.45655421338142E-07  8.48882091652209E+00
 cg2d: Sum(rhs),rhsMax =  -2.45829966161182E-07  8.48281648598470E+00
 cg2d: Sum(rhs),rhsMax =  -2.46003693860075E-07  8.47683141604414E+00
 cg2d: Sum(rhs),rhsMax =  -2.46177087603883E-07  8.47086986481543E+00
 cg2d: Sum(rhs),rhsMax =  -2.46350516874827E-07  8.46493565647207E+00
 EXTERNAL_FIELDS_LOAD, it=   3600570 : Reading new data, i0,i1=   10   11 (prev=    9    1 )
 DIC_FIELDS_LOAD, it=   3600570 : Reading new data, i0,i1=   10   11 (prev=    9   10 )
 cg2d: Sum(rhs),rhsMax =  -2.46522958491369E-07  8.45903217397129E+00
 cg2d: Sum(rhs),rhsMax =  -2.46693353744831E-07  8.45319776100662E+00
 cg2d: Sum(rhs),rhsMax =  -2.46861752373206E-07  8.44745780781015E+00
 cg2d: Sum(rhs),rhsMax =  -2.47026463284783E-07  8.44183689308228E+00
 cg2d: Sum(rhs),rhsMax =  -2.47187230684176E-07  8.43635808123200E+00
 cg2d: Sum(rhs),rhsMax =  -2.47343706405445E-07  8.43104233122613E+00
 cg2d: Sum(rhs),rhsMax =  -2.47495002270171E-07  8.42590806033104E+00
 cg2d: Sum(rhs),rhsMax =  -2.47640862482967E-07  8.42097079337588E+00
 cg2d: Sum(rhs),rhsMax =  -2.47780199913450E-07  8.41624287670950E+00
 cg2d: Sum(rhs),rhsMax =  -2.47913433781832E-07  8.41173327531019E+00
 cg2d: Sum(rhs),rhsMax =  -2.48040628036961E-07  8.40744751803125E+00
 cg2d: Sum(rhs),rhsMax =  -2.48160993976398E-07  8.40338776690083E+00
 cg2d: Sum(rhs),rhsMax =  -2.48274659497838E-07  8.39955295260282E+00
 cg2d: Sum(rhs),rhsMax =  -2.48382001188929E-07  8.39593904397255E+00
 cg2d: Sum(rhs),rhsMax =  -2.48483310372194E-07  8.39253935780259E+00
 cg2d: Sum(rhs),rhsMax =  -2.48578452044512E-07  8.38934486115791E+00
 cg2d: Sum(rhs),rhsMax =  -2.48667660684987E-07  8.38634455564178E+00
 cg2d: Sum(rhs),rhsMax =  -2.48751881315457E-07  8.38352593271183E+00
 cg2d: Sum(rhs),rhsMax =  -2.48830964721947E-07  8.38087545512510E+00
 cg2d: Sum(rhs),rhsMax =  -2.48905820399159E-07  8.37837910210342E+00
 cg2d: Sum(rhs),rhsMax =  -2.48976242289700E-07  8.37602295704436E+00
 cg2d: Sum(rhs),rhsMax =  -2.49042699351776E-07  8.37379380797618E+00
 cg2d: Sum(rhs),rhsMax =  -2.49106562932866E-07  8.37167959361354E+00
 cg2d: Sum(rhs),rhsMax =  -2.49166241417242E-07  8.36966926830838E+00
 cg2d: Sum(rhs),rhsMax =  -2.49223795378839E-07  8.36775333408158E+00
 cg2d: Sum(rhs),rhsMax =  -2.49279089814536E-07  8.36592380342866E+00
 cg2d: Sum(rhs),rhsMax =  -2.49331364443606E-07  8.36417416133343E+00
 cg2d: Sum(rhs),rhsMax =  -2.49381677974725E-07  8.36249928728285E+00
 cg2d: Sum(rhs),rhsMax =  -2.49429696452808E-07  8.36089538401903E+00
 cg2d: Sum(rhs),rhsMax =  -2.49476237002000E-07  8.35935991281295E+00
 cg2d: Sum(rhs),rhsMax =  -2.49520162753925E-07  8.35789146030961E+00
 cg2d: Sum(rhs),rhsMax =  -2.49562525311831E-07  8.35648964985200E+00
 cg2d: Sum(rhs),rhsMax =  -2.49602841506658E-07  8.35515513914879E+00
 cg2d: Sum(rhs),rhsMax =  -2.49640748961610E-07  8.35388971117527E+00
 cg2d: Sum(rhs),rhsMax =  -2.49676844532587E-07  8.35269628610801E+00
 cg2d: Sum(rhs),rhsMax =  -2.49710517152835E-07  8.35157887088272E+00
 cg2d: Sum(rhs),rhsMax =  -2.49741731295217E-07  8.35054250509572E+00
 cg2d: Sum(rhs),rhsMax =  -2.49770394589177E-07  8.34959323059716E+00
 cg2d: Sum(rhs),rhsMax =  -2.49796435980443E-07  8.34873810769870E+00
 cg2d: Sum(rhs),rhsMax =  -2.49819045450295E-07  8.34798512227025E+00
 cg2d: Sum(rhs),rhsMax =  -2.49838244315015E-07  8.34734290261435E+00
 cg2d: Sum(rhs),rhsMax =  -2.49853975731185E-07  8.34682030367283E+00
 cg2d: Sum(rhs),rhsMax =  -2.49866459967052E-07  8.34642602050246E+00
 cg2d: Sum(rhs),rhsMax =  -2.49874005930906E-07  8.34616833018179E+00
 cg2d: Sum(rhs),rhsMax =  -2.49877167846080E-07  8.34605492416921E+00
 cg2d: Sum(rhs),rhsMax =  -2.49876372038216E-07  8.34609271647880E+00
 cg2d: Sum(rhs),rhsMax =  -2.49870495849791E-07  8.34628766951383E+00
 cg2d: Sum(rhs),rhsMax =  -2.49859972711874E-07  8.34664465917166E+00
 cg2d: Sum(rhs),rhsMax =  -2.49844404720534E-07  8.34716735659488E+00
 cg2d: Sum(rhs),rhsMax =  -2.49823550291239E-07  8.34785810988885E+00
 cg2d: Sum(rhs),rhsMax =  -2.49798063123308E-07  8.34871787621402E+00
 cg2d: Sum(rhs),rhsMax =  -2.49766976878618E-07  8.34974617920463E+00
 cg2d: Sum(rhs),rhsMax =  -2.49731257895291E-07  8.35094113608330E+00
 cg2d: Sum(rhs),rhsMax =  -2.49690643272515E-07  8.35229948619608E+00
 cg2d: Sum(rhs),rhsMax =  -2.49645175642854E-07  8.35381675511217E+00
 cg2d: Sum(rhs),rhsMax =  -2.49595025536564E-07  8.35548736188202E+00
 cg2d: Sum(rhs),rhsMax =  -2.49540875074672E-07  8.35730476743729E+00
 cg2d: Sum(rhs),rhsMax =  -2.49482035030724E-07  8.35926164070414E+00
 cg2d: Sum(rhs),rhsMax =  -2.49419819908780E-07  8.36135002375845E+00
 cg2d: Sum(rhs),rhsMax =  -2.49353568904098E-07  8.36356151790629E+00
 EXTERNAL_FIELDS_LOAD, it=   3600630 : Reading new data, i0,i1=   11   12 (prev=   10   11 )
 DIC_FIELDS_LOAD, it=   3600630 : Reading new data, i0,i1=   11   12 (prev=   10   11 )
 cg2d: Sum(rhs),rhsMax =  -2.49283999664840E-07  8.36588746134833E+00
 cg2d: Sum(rhs),rhsMax =  -2.49212149583400E-07  8.36830171267966E+00
 cg2d: Sum(rhs),rhsMax =  -2.49137990238069E-07  8.37078382670868E+00
 cg2d: Sum(rhs),rhsMax =  -2.49062694024360E-07  8.37331347128018E+00
 cg2d: Sum(rhs),rhsMax =  -2.48986417261676E-07  8.37587083487809E+00
 cg2d: Sum(rhs),rhsMax =  -2.48910055233864E-07  8.37843890797547E+00
 cg2d: Sum(rhs),rhsMax =  -2.48833615046351E-07  8.38100282447941E+00
 cg2d: Sum(rhs),rhsMax =  -2.48757785925591E-07  8.38355008718710E+00
 cg2d: Sum(rhs),rhsMax =  -2.48682930248378E-07  8.38607101327765E+00
 cg2d: Sum(rhs),rhsMax =  -2.48608408526252E-07  8.38855886249661E+00
 cg2d: Sum(rhs),rhsMax =  -2.48536004221478E-07  8.39100987040112E+00
 cg2d: Sum(rhs),rhsMax =  -2.48464210983457E-07  8.39342320470582E+00
 cg2d: Sum(rhs),rhsMax =  -2.48393547508385E-07  8.39580086228628E+00
 cg2d: Sum(rhs),rhsMax =  -2.48323665630323E-07  8.39814747768731E+00
 cg2d: Sum(rhs),rhsMax =  -2.48254892198929E-07  8.40047003473604E+00
 cg2d: Sum(rhs),rhsMax =  -2.48186310614074E-07  8.40277751423481E+00
 cg2d: Sum(rhs),rhsMax =  -2.48117892454047E-07  8.40508048455822E+00
 cg2d: Sum(rhs),rhsMax =  -2.48049687456842E-07  8.40739063604165E+00
 cg2d: Sum(rhs),rhsMax =  -2.47980871392883E-07  8.40972032300375E+00
 cg2d: Sum(rhs),rhsMax =  -2.47910648454308E-07  8.41208213189281E+00
 cg2d: Sum(rhs),rhsMax =  -2.47839537337313E-07  8.41448816606350E+00
 cg2d: Sum(rhs),rhsMax =  -2.47766863026300E-07  8.41694970128980E+00
 cg2d: Sum(rhs),rhsMax =  -2.47691964716523E-07  8.41947813091076E+00
 cg2d: Sum(rhs),rhsMax =  -2.47614714510291E-07  8.42209648974696E+00
 cg2d: Sum(rhs),rhsMax =  -2.47534813979655E-07  8.42482035527151E+00
 cg2d: Sum(rhs),rhsMax =  -2.47451126256237E-07  8.42766351995909E+00
 cg2d: Sum(rhs),rhsMax =  -2.47363992400551E-07  8.43063783312212E+00
 cg2d: Sum(rhs),rhsMax =  -2.47272517128749E-07  8.43375283121391E+00
 cg2d: Sum(rhs),rhsMax =  -2.47176934919935E-07  8.43701559654336E+00
 cg2d: Sum(rhs),rhsMax =  -2.47076883397312E-07  8.44043066353450E+00
 cg2d: Sum(rhs),rhsMax =  -2.46972234663190E-07  8.44400002260639E+00
 cg2d: Sum(rhs),rhsMax =  -2.46863251618379E-07  8.44772316054511E+00
 cg2d: Sum(rhs),rhsMax =  -2.46750062160572E-07  8.45159719138741E+00
 cg2d: Sum(rhs),rhsMax =  -2.46632367861821E-07  8.45561701011588E+00
 cg2d: Sum(rhs),rhsMax =  -2.46511149271100E-07  8.45977551282957E+00
 cg2d: Sum(rhs),rhsMax =  -2.46386285596145E-07  8.46406373659226E+00
 cg2d: Sum(rhs),rhsMax =  -2.46257769731528E-07  8.46847122879392E+00
 cg2d: Sum(rhs),rhsMax =  -2.46126411695968E-07  8.47298635145432E+00
 cg2d: Sum(rhs),rhsMax =  -2.45992481495705E-07  8.47759653567383E+00
 cg2d: Sum(rhs),rhsMax =  -2.45856256242405E-07  8.48228855871733E+00
 cg2d: Sum(rhs),rhsMax =  -2.45718460689659E-07  8.48704884333580E+00
 cg2d: Sum(rhs),rhsMax =  -2.45578725355244E-07  8.49186380279765E+00
 cg2d: Sum(rhs),rhsMax =  -2.45438343426940E-07  8.49672023122521E+00
 cg2d: Sum(rhs),rhsMax =  -2.45297442802439E-07  8.50160566769727E+00
 cg2d: Sum(rhs),rhsMax =  -2.45155710842937E-07  8.50650876168224E+00
 cg2d: Sum(rhs),rhsMax =  -2.45014355471085E-07  8.51141938832254E+00
 cg2d: Sum(rhs),rhsMax =  -2.44872978782951E-07  8.51632882603140E+00
 cg2d: Sum(rhs),rhsMax =  -2.44732156318150E-07  8.52122992574505E+00
 cg2d: Sum(rhs),rhsMax =  -2.44592122555787E-07  8.52611725421215E+00
 cg2d: Sum(rhs),rhsMax =  -2.44452138531415E-07  8.53098720300080E+00
 cg2d: Sum(rhs),rhsMax =  -2.44313056896317E-07  8.53583804386303E+00
 cg2d: Sum(rhs),rhsMax =  -2.44175289765280E-07  8.54066993807463E+00
 cg2d: Sum(rhs),rhsMax =  -2.44037558161381E-07  8.54548489389639E+00
 cg2d: Sum(rhs),rhsMax =  -2.43900487362225E-07  8.55028665503631E+00
 cg2d: Sum(rhs),rhsMax =  -2.43763828677857E-07  8.55508055409759E+00
 cg2d: Sum(rhs),rhsMax =  -2.43627631846266E-07  8.55987334584090E+00
 cg2d: Sum(rhs),rhsMax =  -2.43490916318478E-07  8.56467304589797E+00
 cg2d: Sum(rhs),rhsMax =  -2.43354129736417E-07  8.56948875081293E+00
 cg2d: Sum(rhs),rhsMax =  -2.43216923934142E-07  8.57433041210705E+00
 cg2d: Sum(rhs),rhsMax =  -2.43078602579772E-07  8.57920857075689E+00
 EXTERNAL_FIELDS_LOAD, it=   3600690 : Reading new data, i0,i1=   12    1 (prev=   11   12 )
 DIC_FIELDS_LOAD, it=   3600690 : Reading new data, i0,i1=   12    1 (prev=   11   12 )
 cg2d: Sum(rhs),rhsMax =  -2.42939044881041E-07  8.58413406052202E+00
 cg2d: Sum(rhs),rhsMax =  -2.42799337968336E-07  8.58909115986565E+00
 cg2d: Sum(rhs),rhsMax =  -2.42658693139219E-07  8.59407439112439E+00
 cg2d: Sum(rhs),rhsMax =  -2.42517621984462E-07  8.59907838916988E+00
 cg2d: Sum(rhs),rhsMax =  -2.42376209769191E-07  8.60409812483420E+00
 cg2d: Sum(rhs),rhsMax =  -2.42234591496526E-07  8.60912903142987E+00
 cg2d: Sum(rhs),rhsMax =  -2.42093065594418E-07  8.61416710086381E+00
 cg2d: Sum(rhs),rhsMax =  -2.41951582324873E-07  8.61920891727868E+00
 cg2d: Sum(rhs),rhsMax =  -2.41810418799560E-07  8.62425159962176E+00
 cg2d: Sum(rhs),rhsMax =  -2.41669411593648E-07  8.62929265748306E+00
 cg2d: Sum(rhs),rhsMax =  -2.41528212541198E-07  8.63432985252268E+00
 cg2d: Sum(rhs),rhsMax =  -2.41388200095116E-07  8.63936110467875E+00
 cg2d: Sum(rhs),rhsMax =  -2.41247725796256E-07  8.64438452071694E+00
 cg2d: Sum(rhs),rhsMax =  -2.41107890985859E-07  8.64939845502298E+00
 cg2d: Sum(rhs),rhsMax =  -2.40969008302727E-07  8.65440163740473E+00
 cg2d: Sum(rhs),rhsMax =  -2.40829955089339E-07  8.65939341167613E+00
 cg2d: Sum(rhs),rhsMax =  -2.40691825581507E-07  8.66437380926046E+00
 cg2d: Sum(rhs),rhsMax =  -2.40553994501624E-07  8.66934351194661E+00
 cg2d: Sum(rhs),rhsMax =  -2.40416618169093E-07  8.67430280369745E+00
 cg2d: Sum(rhs),rhsMax =  -2.40279604213356E-07  8.67925548690400E+00
 cg2d: Sum(rhs),rhsMax =  -2.40142895790996E-07  8.68420665617491E+00
 cg2d: Sum(rhs),rhsMax =  -2.40006130525217E-07  8.68916145963729E+00
 cg2d: Sum(rhs),rhsMax =  -2.39869450524566E-07  8.69412491880011E+00
 cg2d: Sum(rhs),rhsMax =  -2.39731853923786E-07  8.69910175166197E+00
 cg2d: Sum(rhs),rhsMax =  -2.39594477591254E-07  8.70409625463335E+00
 cg2d: Sum(rhs),rhsMax =  -2.39456610984234E-07  8.70911224623719E+00
 cg2d: Sum(rhs),rhsMax =  -2.39318524108967E-07  8.71415300952969E+00
 cg2d: Sum(rhs),rhsMax =  -2.39179819061519E-07  8.71922107400600E+00
 cg2d: Sum(rhs),rhsMax =  -2.39039941618557E-07  8.72431810322763E+00
 cg2d: Sum(rhs),rhsMax =  -2.38899893645339E-07  8.72944491034874E+00
 cg2d: Sum(rhs),rhsMax =  -2.38758616433188E-07  8.73460150471141E+00
 cg2d: Sum(rhs),rhsMax =  -2.38616948422532E-07  8.73978715591014E+00
 cg2d: Sum(rhs),rhsMax =  -2.38474669345123E-07  8.74500048107581E+00
 cg2d: Sum(rhs),rhsMax =  -2.38332305002587E-07  8.75023954225340E+00
 cg2d: Sum(rhs),rhsMax =  -2.38189322487870E-07  8.75550195605016E+00
 cg2d: Sum(rhs),rhsMax =  -2.38046069966913E-07  8.76078500778492E+00
 cg2d: Sum(rhs),rhsMax =  -2.37902014532665E-07  8.76608574658582E+00
 cg2d: Sum(rhs),rhsMax =  -2.37757973309272E-07  8.77140108996162E+00
 cg2d: Sum(rhs),rhsMax =  -2.37613583919938E-07  8.77672791128606E+00
 cg2d: Sum(rhs),rhsMax =  -2.37469464536844E-07  8.78206311907848E+00
(PID.TID 0000.0001) Did not write pickup because writePickupAtEnd = FALSE
 cg2d: Sum(rhs),rhsMax =  -2.44783471714527E-07  8.51897418323859E+00
 cg2d: Sum(rhs),rhsMax =  -2.44957739425899E-07  8.51294224856493E+00
 cg2d: Sum(rhs),rhsMax =  -2.45131850817870E-07  8.50690564885983E+00
 cg2d: Sum(rhs),rhsMax =  -2.45306104318388E-07  8.50087010325378E+00
 cg2d: Sum(rhs),rhsMax =  -2.45480840987966E-07  8.49484030788981E+00
 cg2d: Sum(rhs),rhsMax =  -2.45655421338142E-07  8.48882091652209E+00
 cg2d: Sum(rhs),rhsMax =  -2.45829966161182E-07  8.48281648598470E+00
 cg2d: Sum(rhs),rhsMax =  -2.46003693860075E-07  8.47683141604414E+00
 cg2d: Sum(rhs),rhsMax =  -2.46177087603883E-07  8.47086986481543E+00
 cg2d: Sum(rhs),rhsMax =  -2.46350516874827E-07  8.46493565647207E+00
 EXTERNAL_FIELDS_LOAD, it=   3600570 : Reading new data, i0,i1=   10   11 (prev=    9    1 )
 DIC_FIELDS_LOAD, it=   3600570 : Reading new data, i0,i1=   10   11 (prev=    9   10 )
 cg2d: Sum(rhs),rhsMax =  -2.46522958491369E-07  8.45903217397129E+00
 cg2d: Sum(rhs),rhsMax =  -2.46693353744831E-07  8.45319776100662E+00
 cg2d: Sum(rhs),rhsMax =  -2.46861752373206E-07  8.44745780781015E+00
 cg2d: Sum(rhs),rhsMax =  -2.47026463284783E-07  8.44183689308228E+00
 cg2d: Sum(rhs),rhsMax =  -2.47187230684176E-07  8.43635808123200E+00
 cg2d: Sum(rhs),rhsMax =  -2.47343706405445E-07  8.43104233122613E+00
 cg2d: Sum(rhs),rhsMax =  -2.47495002270171E-07  8.42590806033104E+00
 cg2d: Sum(rhs),rhsMax =  -2.47640862482967E-07  8.42097079337588E+00
 cg2d: Sum(rhs),rhsMax =  -2.47780199913450E-07  8.41624287670950E+00
 cg2d: Sum(rhs),rhsMax =  -2.47913433781832E-07  8.41173327531019E+00
 cg2d: Sum(rhs),rhsMax =  -2.48040628036961E-07  8.40744751803125E+00
 cg2d: Sum(rhs),rhsMax =  -2.48160993976398E-07  8.40338776690083E+00
 cg2d: Sum(rhs),rhsMax =  -2.48274659497838E-07  8.39955295260282E+00
 cg2d: Sum(rhs),rhsMax =  -2.48382001188929E-07  8.39593904397255E+00
 cg2d: Sum(rhs),rhsMax =  -2.48483310372194E-07  8.39253935780259E+00
 cg2d: Sum(rhs),rhsMax =  -2.48578452044512E-07  8.38934486115791E+00
 cg2d: Sum(rhs),rhsMax =  -2.48667660684987E-07  8.38634455564178E+00
 cg2d: Sum(rhs),rhsMax =  -2.48751881315457E-07  8.38352593271183E+00
 cg2d: Sum(rhs),rhsMax =  -2.48830964721947E-07  8.38087545512510E+00
 cg2d: Sum(rhs),rhsMax =  -2.48905820399159E-07  8.37837910210342E+00
 cg2d: Sum(rhs),rhsMax =  -2.48976242289700E-07  8.37602295704436E+00
 cg2d: Sum(rhs),rhsMax =  -2.49042699351776E-07  8.37379380797618E+00
 cg2d: Sum(rhs),rhsMax =  -2.49106562932866E-07  8.37167959361354E+00
 cg2d: Sum(rhs),rhsMax =  -2.49166241417242E-07  8.36966926830838E+00
 cg2d: Sum(rhs),rhsMax =  -2.49223795378839E-07  8.36775333408158E+00
 cg2d: Sum(rhs),rhsMax =  -2.49279089814536E-07  8.36592380342866E+00
 cg2d: Sum(rhs),rhsMax =  -2.49331364443606E-07  8.36417416133343E+00
 cg2d: Sum(rhs),rhsMax =  -2.49381677974725E-07  8.36249928728285E+00
 cg2d: Sum(rhs),rhsMax =  -2.49429696452808E-07  8.36089538401903E+00
 cg2d: Sum(rhs),rhsMax =  -2.49476237002000E-07  8.35935991281295E+00
 cg2d: Sum(rhs),rhsMax =  -2.49520162753925E-07  8.35789146030961E+00
 cg2d: Sum(rhs),rhsMax =  -2.49562525311831E-07  8.35648964985200E+00
 cg2d: Sum(rhs),rhsMax =  -2.49602841506658E-07  8.35515513914879E+00
 cg2d: Sum(rhs),rhsMax =  -2.49640748961610E-07  8.35388971117527E+00
 cg2d: Sum(rhs),rhsMax =  -2.49676844532587E-07  8.35269628610801E+00
 cg2d: Sum(rhs),rhsMax =  -2.49710517152835E-07  8.35157887088272E+00
 cg2d: Sum(rhs),rhsMax =  -2.49741731295217E-07  8.35054250509572E+00
 cg2d: Sum(rhs),rhsMax =  -2.49770394589177E-07  8.34959323059716E+00
 cg2d: Sum(rhs),rhsMax =  -2.49796435980443E-07  8.34873810769870E+00
 cg2d: Sum(rhs),rhsMax =  -2.49819045450295E-07  8.34798512227025E+00
 cg2d: Sum(rhs),rhsMax =  -2.49838244315015E-07  8.34734290261435E+00
 cg2d: Sum(rhs),rhsMax =  -2.49853975731185E-07  8.34682030367283E+00
 cg2d: Sum(rhs),rhsMax =  -2.49866459967052E-07  8.34642602050246E+00
 cg2d: Sum(rhs),rhsMax =  -2.49874005930906E-07  8.34616833018179E+00
 cg2d: Sum(rhs),rhsMax =  -2.49877167846080E-07  8.34605492416921E+00
 cg2d: Sum(rhs),rhsMax =  -2.49876372038216E-07  8.34609271647880E+00
 cg2d: Sum(rhs),rhsMax =  -2.49870495849791E-07  8.34628766951383E+00
 cg2d: Sum(rhs),rhsMax =  -2.49859972711874E-07  8.34664465917166E+00
 cg2d: Sum(rhs),rhsMax =  -2.49844404720534E-07  8.34716735659488E+00
 cg2d: Sum(rhs),rhsMax =  -2.49823550291239E-07  8.34785810988885E+00
 cg2d: Sum(rhs),rhsMax =  -2.49798063123308E-07  8.34871787621402E+00
 cg2d: Sum(rhs),rhsMax =  -2.49766976878618E-07  8.34974617920463E+00
 cg2d: Sum(rhs),rhsMax =  -2.49731257895291E-07  8.35094113608330E+00
 cg2d: Sum(rhs),rhsMax =  -2.49690643272515E-07  8.35229948619608E+00
 cg2d: Sum(rhs),rhsMax =  -2.49645175642854E-07  8.35381675511217E+00
 cg2d: Sum(rhs),rhsMax =  -2.49595025536564E-07  8.35548736188202E+00
 cg2d: Sum(rhs),rhsMax =  -2.49540875074672E-07  8.35730476743729E+00
 cg2d: Sum(rhs),rhsMax =  -2.49482035030724E-07  8.35926164070414E+00
 cg2d: Sum(rhs),rhsMax =  -2.49419819908780E-07  8.36135002375845E+00
 cg2d: Sum(rhs),rhsMax =  -2.49353568904098E-07  8.36356151790629E+00
 EXTERNAL_FIELDS_LOAD, it=   3600630 : Reading new data, i0,i1=   11   12 (prev=   10   11 )
 DIC_FIELDS_LOAD, it=   3600630 : Reading new data, i0,i1=   11   12 (prev=   10   11 )
 cg2d: Sum(rhs),rhsMax =  -2.49283999664840E-07  8.36588746134833E+00
 cg2d: Sum(rhs),rhsMax =  -2.49212149583400E-07  8.36830171267966E+00
 cg2d: Sum(rhs),rhsMax =  -2.49137990238069E-07  8.37078382670868E+00
 cg2d: Sum(rhs),rhsMax =  -2.49062694024360E-07  8.37331347128018E+00
 cg2d: Sum(rhs),rhsMax =  -2.48986417261676E-07  8.37587083487809E+00
 cg2d: Sum(rhs),rhsMax =  -2.48910055233864E-07  8.37843890797547E+00
 cg2d: Sum(rhs),rhsMax =  -2.48833615046351E-07  8.38100282447941E+00
 cg2d: Sum(rhs),rhsMax =  -2.48757785925591E-07  8.38355008718710E+00
 cg2d: Sum(rhs),rhsMax =  -2.48682930248378E-07  8.38607101327765E+00
 cg2d: Sum(rhs),rhsMax =  -2.48608408526252E-07  8.38855886249661E+00
 cg2d: Sum(rhs),rhsMax =  -2.48536004221478E-07  8.39100987040112E+00
 cg2d: Sum(rhs),rhsMax =  -2.48464210983457E-07  8.39342320470582E+00
 cg2d: Sum(rhs),rhsMax =  -2.48393547508385E-07  8.39580086228628E+00
 cg2d: Sum(rhs),rhsMax =  -2.48323665630323E-07  8.39814747768731E+00
 cg2d: Sum(rhs),rhsMax =  -2.48254892198929E-07  8.40047003473604E+00
 cg2d: Sum(rhs),rhsMax =  -2.48186310614074E-07  8.40277751423481E+00
 cg2d: Sum(rhs),rhsMax =  -2.48117892454047E-07  8.40508048455822E+00
 cg2d: Sum(rhs),rhsMax =  -2.48049687456842E-07  8.40739063604165E+00
 cg2d: Sum(rhs),rhsMax =  -2.47980871392883E-07  8.40972032300375E+00
 cg2d: Sum(rhs),rhsMax =  -2.47910648454308E-07  8.41208213189281E+00
 cg2d: Sum(rhs),rhsMax =  -2.47839537337313E-07  8.41448816606350E+00
 cg2d: Sum(rhs),rhsMax =  -2.47766863026300E-07  8.41694970128980E+00
 cg2d: Sum(rhs),rhsMax =  -2.47691964716523E-07  8.41947813091076E+00
 cg2d: Sum(rhs),rhsMax =  -2.47614714510291E-07  8.42209648974696E+00
 cg2d: Sum(rhs),rhsMax =  -2.47534813979655E-07  8.42482035527151E+00
 cg2d: Sum(rhs),rhsMax =  -2.47451126256237E-07  8.42766351995909E+00
 cg2d: Sum(rhs),rhsMax =  -2.47363992400551E-07  8.43063783312212E+00
 cg2d: Sum(rhs),rhsMax =  -2.47272517128749E-07  8.43375283121391E+00
 cg2d: Sum(rhs),rhsMax =  -2.47176934919935E-07  8.43701559654336E+00
 cg2d: Sum(rhs),rhsMax =  -2.47076883397312E-07  8.44043066353450E+00
 cg2d: Sum(rhs),rhsMax =  -2.46972234663190E-07  8.44400002260639E+00
 cg2d: Sum(rhs),rhsMax =  -2.46863251618379E-07  8.44772316054511E+00
 cg2d: Sum(rhs),rhsMax =  -2.46750062160572E-07  8.45159719138741E+00
 cg2d: Sum(rhs),rhsMax =  -2.46632367861821E-07  8.45561701011588E+00
 cg2d: Sum(rhs),rhsMax =  -2.46511149271100E-07  8.45977551282957E+00
 cg2d: Sum(rhs),rhsMax =  -2.46386285596145E-07  8.46406373659226E+00
 cg2d: Sum(rhs),rhsMax =  -2.46257769731528E-07  8.46847122879392E+00
 cg2d: Sum(rhs),rhsMax =  -2.46126411695968E-07  8.47298635145432E+00
 cg2d: Sum(rhs),rhsMax =  -2.45992481495705E-07  8.47759653567383E+00
 cg2d: Sum(rhs),rhsMax =  -2.45856256242405E-07  8.48228855871733E+00
 cg2d: Sum(rhs),rhsMax =  -2.45718460689659E-07  8.48704884333580E+00
 cg2d: Sum(rhs),rhsMax =  -2.45578725355244E-07  8.49186380279765E+00
 cg2d: Sum(rhs),rhsMax =  -2.45438343426940E-07  8.49672023122521E+00
 cg2d: Sum(rhs),rhsMax =  -2.45297442802439E-07  8.50160566769727E+00
 cg2d: Sum(rhs),rhsMax =  -2.45155710842937E-07  8.50650876168224E+00
 cg2d: Sum(rhs),rhsMax =  -2.45014355471085E-07  8.51141938832254E+00
 cg2d: Sum(rhs),rhsMax =  -2.44872978782951E-07  8.51632882603140E+00
 cg2d: Sum(rhs),rhsMax =  -2.44732156318150E-07  8.52122992574505E+00
 cg2d: Sum(rhs),rhsMax =  -2.44592122555787E-07  8.52611725421215E+00
 cg2d: Sum(rhs),rhsMax =  -2.44452138531415E-07  8.53098720300080E+00
 cg2d: Sum(rhs),rhsMax =  -2.44313056896317E-07  8.53583804386303E+00
 cg2d: Sum(rhs),rhsMax =  -2.44175289765280E-07  8.54066993807463E+00
 cg2d: Sum(rhs),rhsMax =  -2.44037558161381E-07  8.54548489389639E+00
 cg2d: Sum(rhs),rhsMax =  -2.43900487362225E-07  8.55028665503631E+00
 cg2d: Sum(rhs),rhsMax =  -2.43763828677857E-07  8.55508055409759E+00
 cg2d: Sum(rhs),rhsMax =  -2.43627631846266E-07  8.55987334584090E+00
 cg2d: Sum(rhs),rhsMax =  -2.43490916318478E-07  8.56467304589797E+00
 cg2d: Sum(rhs),rhsMax =  -2.43354129736417E-07  8.56948875081293E+00
 cg2d: Sum(rhs),rhsMax =  -2.43216923934142E-07  8.57433041210705E+00
 cg2d: Sum(rhs),rhsMax =  -2.43078602579772E-07  8.57920857075689E+00
 EXTERNAL_FIELDS_LOAD, it=   3600690 : Reading new data, i0,i1=   12    1 (prev=   11   12 )
 DIC_FIELDS_LOAD, it=   3600690 : Reading new data, i0,i1=   12    1 (prev=   11   12 )
 cg2d: Sum(rhs),rhsMax =  -2.42939044881041E-07  8.58413406052202E+00
 cg2d: Sum(rhs),rhsMax =  -2.42799337968336E-07  8.58909115986565E+00
 cg2d: Sum(rhs),rhsMax =  -2.42658693139219E-07  8.59407439112439E+00
 cg2d: Sum(rhs),rhsMax =  -2.42517621984462E-07  8.59907838916988E+00
 cg2d: Sum(rhs),rhsMax =  -2.42376209769191E-07  8.60409812483420E+00
 cg2d: Sum(rhs),rhsMax =  -2.42234591496526E-07  8.60912903142987E+00
 cg2d: Sum(rhs),rhsMax =  -2.42093065594418E-07  8.61416710086381E+00
 cg2d: Sum(rhs),rhsMax =  -2.41951582324873E-07  8.61920891727868E+00
 cg2d: Sum(rhs),rhsMax =  -2.41810418799560E-07  8.62425159962176E+00
 cg2d: Sum(rhs),rhsMax =  -2.41669411593648E-07  8.62929265748306E+00
 cg2d: Sum(rhs),rhsMax =  -2.41528212541198E-07  8.63432985252268E+00
 cg2d: Sum(rhs),rhsMax =  -2.41388200095116E-07  8.63936110467875E+00
 cg2d: Sum(rhs),rhsMax =  -2.41247725796256E-07  8.64438452071694E+00
 cg2d: Sum(rhs),rhsMax =  -2.41107890985859E-07  8.64939845502298E+00
 cg2d: Sum(rhs),rhsMax =  -2.40969008302727E-07  8.65440163740473E+00
 cg2d: Sum(rhs),rhsMax =  -2.40829955089339E-07  8.65939341167613E+00
 cg2d: Sum(rhs),rhsMax =  -2.40691825581507E-07  8.66437380926046E+00
 cg2d: Sum(rhs),rhsMax =  -2.40553994501624E-07  8.66934351194661E+00
 cg2d: Sum(rhs),rhsMax =  -2.40416618169093E-07  8.67430280369745E+00
 cg2d: Sum(rhs),rhsMax =  -2.40279604213356E-07  8.67925548690400E+00
 cg2d: Sum(rhs),rhsMax =  -2.40142895790996E-07  8.68420665617491E+00
 cg2d: Sum(rhs),rhsMax =  -2.40006130525217E-07  8.68916145963729E+00
 cg2d: Sum(rhs),rhsMax =  -2.39869450524566E-07  8.69412491880011E+00
 cg2d: Sum(rhs),rhsMax =  -2.39731853923786E-07  8.69910175166197E+00
 cg2d: Sum(rhs),rhsMax =  -2.39594477591254E-07  8.70409625463335E+00
 cg2d: Sum(rhs),rhsMax =  -2.39456610984234E-07  8.70911224623719E+00
 cg2d: Sum(rhs),rhsMax =  -2.39318524108967E-07  8.71415300952969E+00
 cg2d: Sum(rhs),rhsMax =  -2.39179819061519E-07  8.71922107400600E+00
 cg2d: Sum(rhs),rhsMax =  -2.39039941618557E-07  8.72431810322763E+00
 cg2d: Sum(rhs),rhsMax =  -2.38899893645339E-07  8.72944491034874E+00
 cg2d: Sum(rhs),rhsMax =  -2.38758616433188E-07  8.73460150471141E+00
 cg2d: Sum(rhs),rhsMax =  -2.38616948422532E-07  8.73978715591014E+00
 cg2d: Sum(rhs),rhsMax =  -2.38474669345123E-07  8.74500048107581E+00
 cg2d: Sum(rhs),rhsMax =  -2.38332305002587E-07  8.75023954225340E+00
 cg2d: Sum(rhs),rhsMax =  -2.38189322487870E-07  8.75550195605016E+00
 cg2d: Sum(rhs),rhsMax =  -2.38046069966913E-07  8.76078500778492E+00
 cg2d: Sum(rhs),rhsMax =  -2.37902014532665E-07  8.76608574658582E+00
 cg2d: Sum(rhs),rhsMax =  -2.37757973309272E-07  8.77140108996162E+00
 cg2d: Sum(rhs),rhsMax =  -2.37613583919938E-07  8.77672791128606E+00
 cg2d: Sum(rhs),rhsMax =  -2.37469464536844E-07  8.78206311907848E+00
(PID.TID 0000.0001) Did not write pickup because writePickupAtEnd = FALSE
 cg2d: Sum(rhs),rhsMax =  -2.44783471714527E-07  8.51897418323859E+00
 cg2d: Sum(rhs),rhsMax =  -2.44957739425899E-07  8.51294224856493E+00
 cg2d: Sum(rhs),rhsMax =  -2.45131850817870E-07  8.50690564885983E+00
 cg2d: Sum(rhs),rhsMax =  -2.45306104318388E-07  8.50087010325378E+00
 cg2d: Sum(rhs),rhsMax =  -2.45480840987966E-07  8.49484030788981E+00
 cg2d: Sum(rhs),rhsMax =  -2.45655421338142E-07  8.48882091652209E+00
 cg2d: Sum(rhs),rhsMax =  -2.45829966161182E-07  8.48281648598470E+00
 cg2d: Sum(rhs),rhsMax =  -2.46003693860075E-07  8.47683141604414E+00
 cg2d: Sum(rhs),rhsMax =  -2.46177087603883E-07  8.47086986481543E+00
 cg2d: Sum(rhs),rhsMax =  -2.46350516874827E-07  8.46493565647207E+00
 EXTERNAL_FIELDS_LOAD, it=   3600570 : Reading new data, i0,i1=   10   11 (prev=    9    1 )
 DIC_FIELDS_LOAD, it=   3600570 : Reading new data, i0,i1=   10   11 (prev=    9   10 )
 cg2d: Sum(rhs),rhsMax =  -2.46522958491369E-07  8.45903217397129E+00
 cg2d: Sum(rhs),rhsMax =  -2.46693353744831E-07  8.45319776100662E+00
 cg2d: Sum(rhs),rhsMax =  -2.46861752373206E-07  8.44745780781015E+00
 cg2d: Sum(rhs),rhsMax =  -2.47026463284783E-07  8.44183689308228E+00
 cg2d: Sum(rhs),rhsMax =  -2.47187230684176E-07  8.43635808123200E+00
 cg2d: Sum(rhs),rhsMax =  -2.47343706405445E-07  8.43104233122613E+00
 cg2d: Sum(rhs),rhsMax =  -2.47495002270171E-07  8.42590806033104E+00
 cg2d: Sum(rhs),rhsMax =  -2.47640862482967E-07  8.42097079337588E+00
 cg2d: Sum(rhs),rhsMax =  -2.47780199913450E-07  8.41624287670950E+00
 cg2d: Sum(rhs),rhsMax =  -2.47913433781832E-07  8.41173327531019E+00
 cg2d: Sum(rhs),rhsMax =  -2.48040628036961E-07  8.40744751803125E+00
 cg2d: Sum(rhs),rhsMax =  -2.48160993976398E-07  8.40338776690083E+00
 cg2d: Sum(rhs),rhsMax =  -2.48274659497838E-07  8.39955295260282E+00
 cg2d: Sum(rhs),rhsMax =  -2.48382001188929E-07  8.39593904397255E+00
 cg2d: Sum(rhs),rhsMax =  -2.48483310372194E-07  8.39253935780259E+00
 cg2d: Sum(rhs),rhsMax =  -2.48578452044512E-07  8.38934486115791E+00
 cg2d: Sum(rhs),rhsMax =  -2.48667660684987E-07  8.38634455564178E+00
 cg2d: Sum(rhs),rhsMax =  -2.48751881315457E-07  8.38352593271183E+00
 cg2d: Sum(rhs),rhsMax =  -2.48830964721947E-07  8.38087545512510E+00
 cg2d: Sum(rhs),rhsMax =  -2.48905820399159E-07  8.37837910210342E+00
 cg2d: Sum(rhs),rhsMax =  -2.48976242289700E-07  8.37602295704436E+00
 cg2d: Sum(rhs),rhsMax =  -2.49042699351776E-07  8.37379380797618E+00
 cg2d: Sum(rhs),rhsMax =  -2.49106562932866E-07  8.37167959361354E+00
 cg2d: Sum(rhs),rhsMax =  -2.49166241417242E-07  8.36966926830838E+00
 cg2d: Sum(rhs),rhsMax =  -2.49223795378839E-07  8.36775333408158E+00
 cg2d: Sum(rhs),rhsMax =  -2.49279089814536E-07  8.36592380342866E+00
 cg2d: Sum(rhs),rhsMax =  -2.49331364443606E-07  8.36417416133343E+00
 cg2d: Sum(rhs),rhsMax =  -2.49381677974725E-07  8.36249928728285E+00
 cg2d: Sum(rhs),rhsMax =  -2.49429696452808E-07  8.36089538401903E+00
 cg2d: Sum(rhs),rhsMax =  -2.49476237002000E-07  8.35935991281295E+00
 cg2d: Sum(rhs),rhsMax =  -2.49520162753925E-07  8.35789146030961E+00
 cg2d: Sum(rhs),rhsMax =  -2.49562525311831E-07  8.35648964985200E+00
 cg2d: Sum(rhs),rhsMax =  -2.49602841506658E-07  8.35515513914879E+00
 cg2d: Sum(rhs),rhsMax =  -2.49640748961610E-07  8.35388971117527E+00
 cg2d: Sum(rhs),rhsMax =  -2.49676844532587E-07  8.35269628610801E+00
 cg2d: Sum(rhs),rhsMax =  -2.49710517152835E-07  8.35157887088272E+00
 cg2d: Sum(rhs),rhsMax =  -2.49741731295217E-07  8.35054250509572E+00
 cg2d: Sum(rhs),rhsMax =  -2.49770394589177E-07  8.34959323059716E+00
 cg2d: Sum(rhs),rhsMax =  -2.49796435980443E-07  8.34873810769870E+00
 cg2d: Sum(rhs),rhsMax =  -2.49819045450295E-07  8.34798512227025E+00
 cg2d: Sum(rhs),rhsMax =  -2.49838244315015E-07  8.34734290261435E+00
 cg2d: Sum(rhs),rhsMax =  -2.49853975731185E-07  8.34682030367283E+00
 cg2d: Sum(rhs),rhsMax =  -2.49866459967052E-07  8.34642602050246E+00
 cg2d: Sum(rhs),rhsMax =  -2.49874005930906E-07  8.34616833018179E+00
 cg2d: Sum(rhs),rhsMax =  -2.49877167846080E-07  8.34605492416921E+00
 cg2d: Sum(rhs),rhsMax =  -2.49876372038216E-07  8.34609271647880E+00
 cg2d: Sum(rhs),rhsMax =  -2.49870495849791E-07  8.34628766951383E+00
 cg2d: Sum(rhs),rhsMax =  -2.49859972711874E-07  8.34664465917166E+00
 cg2d: Sum(rhs),rhsMax =  -2.49844404720534E-07  8.34716735659488E+00
 cg2d: Sum(rhs),rhsMax =  -2.49823550291239E-07  8.34785810988885E+00
 cg2d: Sum(rhs),rhsMax =  -2.49798063123308E-07  8.34871787621402E+00
 cg2d: Sum(rhs),rhsMax =  -2.49766976878618E-07  8.34974617920463E+00
 cg2d: Sum(rhs),rhsMax =  -2.49731257895291E-07  8.35094113608330E+00
 cg2d: Sum(rhs),rhsMax =  -2.49690643272515E-07  8.35229948619608E+00
 cg2d: Sum(rhs),rhsMax =  -2.49645175642854E-07  8.35381675511217E+00
 cg2d: Sum(rhs),rhsMax =  -2.49595025536564E-07  8.35548736188202E+00
 cg2d: Sum(rhs),rhsMax =  -2.49540875074672E-07  8.35730476743729E+00
 cg2d: Sum(rhs),rhsMax =  -2.49482035030724E-07  8.35926164070414E+00
 cg2d: Sum(rhs),rhsMax =  -2.49419819908780E-07  8.36135002375845E+00
 cg2d: Sum(rhs),rhsMax =  -2.49353568904098E-07  8.36356151790629E+00
 EXTERNAL_FIELDS_LOAD, it=   3600630 : Reading new data, i0,i1=   11   12 (prev=   10   11 )
 DIC_FIELDS_LOAD, it=   3600630 : Reading new data, i0,i1=   11   12 (prev=   10   11 )
 cg2d: Sum(rhs),rhsMax =  -2.49283999664840E-07  8.36588746134833E+00
 cg2d: Sum(rhs),rhsMax =  -2.49212149583400E-07  8.36830171267966E+00
 cg2d: Sum(rhs),rhsMax =  -2.49137990238069E-07  8.37078382670868E+00
 cg2d: Sum(rhs),rhsMax =  -2.49062694024360E-07  8.37331347128018E+00
 cg2d: Sum(rhs),rhsMax =  -2.48986417261676E-07  8.37587083487809E+00
 cg2d: Sum(rhs),rhsMax =  -2.48910055233864E-07  8.37843890797547E+00
 cg2d: Sum(rhs),rhsMax =  -2.48833615046351E-07  8.38100282447941E+00
 cg2d: Sum(rhs),rhsMax =  -2.48757785925591E-07  8.38355008718710E+00
 cg2d: Sum(rhs),rhsMax =  -2.48682930248378E-07  8.38607101327765E+00
 cg2d: Sum(rhs),rhsMax =  -2.48608408526252E-07  8.38855886249661E+00
 cg2d: Sum(rhs),rhsMax =  -2.48536004221478E-07  8.39100987040112E+00
 cg2d: Sum(rhs),rhsMax =  -2.48464210983457E-07  8.39342320470582E+00
 cg2d: Sum(rhs),rhsMax =  -2.48393547508385E-07  8.39580086228628E+00
 cg2d: Sum(rhs),rhsMax =  -2.48323665630323E-07  8.39814747768731E+00
 cg2d: Sum(rhs),rhsMax =  -2.48254892198929E-07  8.40047003473604E+00
 cg2d: Sum(rhs),rhsMax =  -2.48186310614074E-07  8.40277751423481E+00
 cg2d: Sum(rhs),rhsMax =  -2.48117892454047E-07  8.40508048455822E+00
 cg2d: Sum(rhs),rhsMax =  -2.48049687456842E-07  8.40739063604165E+00
 cg2d: Sum(rhs),rhsMax =  -2.47980871392883E-07  8.40972032300375E+00
 cg2d: Sum(rhs),rhsMax =  -2.47910648454308E-07  8.41208213189281E+00
 cg2d: Sum(rhs),rhsMax =  -2.47839537337313E-07  8.41448816606350E+00
 cg2d: Sum(rhs),rhsMax =  -2.47766863026300E-07  8.41694970128980E+00
 cg2d: Sum(rhs),rhsMax =  -2.47691964716523E-07  8.41947813091076E+00
 cg2d: Sum(rhs),rhsMax =  -2.47614714510291E-07  8.42209648974696E+00
 cg2d: Sum(rhs),rhsMax =  -2.47534813979655E-07  8.42482035527151E+00
 cg2d: Sum(rhs),rhsMax =  -2.47451126256237E-07  8.42766351995909E+00
 cg2d: Sum(rhs),rhsMax =  -2.47363992400551E-07  8.43063783312212E+00
 cg2d: Sum(rhs),rhsMax =  -2.47272517128749E-07  8.43375283121391E+00
 cg2d: Sum(rhs),rhsMax =  -2.47176934919935E-07  8.43701559654336E+00
 cg2d: Sum(rhs),rhsMax =  -2.47076883397312E-07  8.44043066353450E+00
 cg2d: Sum(rhs),rhsMax =  -2.46972234663190E-07  8.44400002260639E+00
 cg2d: Sum(rhs),rhsMax =  -2.46863251618379E-07  8.44772316054511E+00
 cg2d: Sum(rhs),rhsMax =  -2.46750062160572E-07  8.45159719138741E+00
 cg2d: Sum(rhs),rhsMax =  -2.46632367861821E-07  8.45561701011588E+00
 cg2d: Sum(rhs),rhsMax =  -2.46511149271100E-07  8.45977551282957E+00
 cg2d: Sum(rhs),rhsMax =  -2.46386285596145E-07  8.46406373659226E+00
 cg2d: Sum(rhs),rhsMax =  -2.46257769731528E-07  8.46847122879392E+00
 cg2d: Sum(rhs),rhsMax =  -2.46126411695968E-07  8.47298635145432E+00
 cg2d: Sum(rhs),rhsMax =  -2.45992481495705E-07  8.47759653567383E+00
 cg2d: Sum(rhs),rhsMax =  -2.45856256242405E-07  8.48228855871733E+00
 cg2d: Sum(rhs),rhsMax =  -2.45718460689659E-07  8.48704884333580E+00
 cg2d: Sum(rhs),rhsMax =  -2.45578725355244E-07  8.49186380279765E+00
 cg2d: Sum(rhs),rhsMax =  -2.45438343426940E-07  8.49672023122521E+00
 cg2d: Sum(rhs),rhsMax =  -2.45297442802439E-07  8.50160566769727E+00
 cg2d: Sum(rhs),rhsMax =  -2.45155710842937E-07  8.50650876168224E+00
 cg2d: Sum(rhs),rhsMax =  -2.45014355471085E-07  8.51141938832254E+00
 cg2d: Sum(rhs),rhsMax =  -2.44872978782951E-07  8.51632882603140E+00
 cg2d: Sum(rhs),rhsMax =  -2.44732156318150E-07  8.52122992574505E+00
 cg2d: Sum(rhs),rhsMax =  -2.44592122555787E-07  8.52611725421215E+00
 cg2d: Sum(rhs),rhsMax =  -2.44452138531415E-07  8.53098720300080E+00
 cg2d: Sum(rhs),rhsMax =  -2.44313056896317E-07  8.53583804386303E+00
 cg2d: Sum(rhs),rhsMax =  -2.44175289765280E-07  8.54066993807463E+00
 cg2d: Sum(rhs),rhsMax =  -2.44037558161381E-07  8.54548489389639E+00
 cg2d: Sum(rhs),rhsMax =  -2.43900487362225E-07  8.55028665503631E+00
 cg2d: Sum(rhs),rhsMax =  -2.43763828677857E-07  8.55508055409759E+00
 cg2d: Sum(rhs),rhsMax =  -2.43627631846266E-07  8.55987334584090E+00
 cg2d: Sum(rhs),rhsMax =  -2.43490916318478E-07  8.56467304589797E+00
 cg2d: Sum(rhs),rhsMax =  -2.43354129736417E-07  8.56948875081293E+00
 cg2d: Sum(rhs),rhsMax =  -2.43216923934142E-07  8.57433041210705E+00
 cg2d: Sum(rhs),rhsMax =  -2.43078602579772E-07  8.57920857075689E+00
 EXTERNAL_FIELDS_LOAD, it=   3600690 : Reading new data, i0,i1=   12    1 (prev=   11   12 )
 DIC_FIELDS_LOAD, it=   3600690 : Reading new data, i0,i1=   12    1 (prev=   11   12 )
 cg2d: Sum(rhs),rhsMax =  -2.42939044881041E-07  8.58413406052202E+00
 cg2d: Sum(rhs),rhsMax =  -2.42799337968336E-07  8.58909115986565E+00
 cg2d: Sum(rhs),rhsMax =  -2.42658693139219E-07  8.59407439112439E+00
 cg2d: Sum(rhs),rhsMax =  -2.42517621984462E-07  8.59907838916988E+00
 cg2d: Sum(rhs),rhsMax =  -2.42376209769191E-07  8.60409812483420E+00
 cg2d: Sum(rhs),rhsMax =  -2.42234591496526E-07  8.60912903142987E+00
 cg2d: Sum(rhs),rhsMax =  -2.42093065594418E-07  8.61416710086381E+00
 cg2d: Sum(rhs),rhsMax =  -2.41951582324873E-07  8.61920891727868E+00
 cg2d: Sum(rhs),rhsMax =  -2.41810418799560E-07  8.62425159962176E+00
 cg2d: Sum(rhs),rhsMax =  -2.41669411593648E-07  8.62929265748306E+00
 cg2d: Sum(rhs),rhsMax =  -2.41528212541198E-07  8.63432985252268E+00
 cg2d: Sum(rhs),rhsMax =  -2.41388200095116E-07  8.63936110467875E+00
 cg2d: Sum(rhs),rhsMax =  -2.41247725796256E-07  8.64438452071694E+00
 cg2d: Sum(rhs),rhsMax =  -2.41107890985859E-07  8.64939845502298E+00
 cg2d: Sum(rhs),rhsMax =  -2.40969008302727E-07  8.65440163740473E+00
 cg2d: Sum(rhs),rhsMax =  -2.40829955089339E-07  8.65939341167613E+00
 cg2d: Sum(rhs),rhsMax =  -2.40691825581507E-07  8.66437380926046E+00
 cg2d: Sum(rhs),rhsMax =  -2.40553994501624E-07  8.66934351194661E+00
 cg2d: Sum(rhs),rhsMax =  -2.40416618169093E-07  8.67430280369745E+00
 cg2d: Sum(rhs),rhsMax =  -2.40279604213356E-07  8.67925548690400E+00
 cg2d: Sum(rhs),rhsMax =  -2.40142895790996E-07  8.68420665617491E+00
 cg2d: Sum(rhs),rhsMax =  -2.40006130525217E-07  8.68916145963729E+00
 cg2d: Sum(rhs),rhsMax =  -2.39869450524566E-07  8.69412491880011E+00
 cg2d: Sum(rhs),rhsMax =  -2.39731853923786E-07  8.69910175166197E+00
 cg2d: Sum(rhs),rhsMax =  -2.39594477591254E-07  8.70409625463335E+00
 cg2d: Sum(rhs),rhsMax =  -2.39456610984234E-07  8.70911224623719E+00
 cg2d: Sum(rhs),rhsMax =  -2.39318524108967E-07  8.71415300952969E+00
 cg2d: Sum(rhs),rhsMax =  -2.39179819061519E-07  8.71922107400600E+00
 cg2d: Sum(rhs),rhsMax =  -2.39039941618557E-07  8.72431810322763E+00
 cg2d: Sum(rhs),rhsMax =  -2.38899893645339E-07  8.72944491034874E+00
 cg2d: Sum(rhs),rhsMax =  -2.38758616433188E-07  8.73460150471141E+00
 cg2d: Sum(rhs),rhsMax =  -2.38616948422532E-07  8.73978715591014E+00
 cg2d: Sum(rhs),rhsMax =  -2.38474669345123E-07  8.74500048107581E+00
 cg2d: Sum(rhs),rhsMax =  -2.38332305002587E-07  8.75023954225340E+00
 cg2d: Sum(rhs),rhsMax =  -2.38189322487870E-07  8.75550195605016E+00
 cg2d: Sum(rhs),rhsMax =  -2.38046069966913E-07  8.76078500778492E+00
 cg2d: Sum(rhs),rhsMax =  -2.37902014532665E-07  8.76608574658582E+00
 cg2d: Sum(rhs),rhsMax =  -2.37757973309272E-07  8.77140108996162E+00
 cg2d: Sum(rhs),rhsMax =  -2.37613583919938E-07  8.77672791128606E+00
 cg2d: Sum(rhs),rhsMax =  -2.37469464536844E-07  8.78206311907848E+00
(PID.TID 0000.0001) Did not write pickup because writePickupAtEnd = FALSE
 cg2d: Sum(rhs),rhsMax =  -2.44783471714527E-07  8.51897418323859E+00
 cg2d: Sum(rhs),rhsMax =  -2.44957739425899E-07  8.51294224856493E+00
 cg2d: Sum(rhs),rhsMax =  -2.45131850817870E-07  8.50690564885983E+00
 cg2d: Sum(rhs),rhsMax =  -2.45306104318388E-07  8.50087010325378E+00
 cg2d: Sum(rhs),rhsMax =  -2.45480840987966E-07  8.49484030788981E+00
 cg2d: Sum(rhs),rhsMax =  -2.45655421338142E-07  8.48882091652209E+00
 cg2d: Sum(rhs),rhsMax =  -2.45829966161182E-07  8.48281648598470E+00
 cg2d: Sum(rhs),rhsMax =  -2.46003693860075E-07  8.47683141604414E+00
 cg2d: Sum(rhs),rhsMax =  -2.46177087603883E-07  8.47086986481543E+00
 cg2d: Sum(rhs),rhsMax =  -2.46350516874827E-07  8.46493565647207E+00
 EXTERNAL_FIELDS_LOAD, it=   3600570 : Reading new data, i0,i1=   10   11 (prev=    9    1 )
 DIC_FIELDS_LOAD, it=   3600570 : Reading new data, i0,i1=   10   11 (prev=    9   10 )
 cg2d: Sum(rhs),rhsMax =  -2.46522958491369E-07  8.45903217397129E+00
 cg2d: Sum(rhs),rhsMax =  -2.46693353744831E-07  8.45319776100662E+00
 cg2d: Sum(rhs),rhsMax =  -2.46861752373206E-07  8.44745780781015E+00
 cg2d: Sum(rhs),rhsMax =  -2.47026463284783E-07  8.44183689308228E+00
 cg2d: Sum(rhs),rhsMax =  -2.47187230684176E-07  8.43635808123200E+00
 cg2d: Sum(rhs),rhsMax =  -2.47343706405445E-07  8.43104233122613E+00
 cg2d: Sum(rhs),rhsMax =  -2.47495002270171E-07  8.42590806033104E+00
 cg2d: Sum(rhs),rhsMax =  -2.47640862482967E-07  8.42097079337588E+00
 cg2d: Sum(rhs),rhsMax =  -2.47780199913450E-07  8.41624287670950E+00
 cg2d: Sum(rhs),rhsMax =  -2.47913433781832E-07  8.41173327531019E+00
 cg2d: Sum(rhs),rhsMax =  -2.48040628036961E-07  8.40744751803125E+00
 cg2d: Sum(rhs),rhsMax =  -2.48160993976398E-07  8.40338776690083E+00
 cg2d: Sum(rhs),rhsMax =  -2.48274659497838E-07  8.39955295260282E+00
 cg2d: Sum(rhs),rhsMax =  -2.48382001188929E-07  8.39593904397255E+00
 cg2d: Sum(rhs),rhsMax =  -2.48483310372194E-07  8.39253935780259E+00
 cg2d: Sum(rhs),rhsMax =  -2.48578452044512E-07  8.38934486115791E+00
 cg2d: Sum(rhs),rhsMax =  -2.48667660684987E-07  8.38634455564178E+00
 cg2d: Sum(rhs),rhsMax =  -2.48751881315457E-07  8.38352593271183E+00
 cg2d: Sum(rhs),rhsMax =  -2.48830964721947E-07  8.38087545512510E+00
 cg2d: Sum(rhs),rhsMax =  -2.48905820399159E-07  8.37837910210342E+00
 cg2d: Sum(rhs),rhsMax =  -2.48976242289700E-07  8.37602295704436E+00
 cg2d: Sum(rhs),rhsMax =  -2.49042699351776E-07  8.37379380797618E+00
 cg2d: Sum(rhs),rhsMax =  -2.49106562932866E-07  8.37167959361354E+00
 cg2d: Sum(rhs),rhsMax =  -2.49166241417242E-07  8.36966926830838E+00
 cg2d: Sum(rhs),rhsMax =  -2.49223795378839E-07  8.36775333408158E+00
 cg2d: Sum(rhs),rhsMax =  -2.49279089814536E-07  8.36592380342866E+00
 cg2d: Sum(rhs),rhsMax =  -2.49331364443606E-07  8.36417416133343E+00
 cg2d: Sum(rhs),rhsMax =  -2.49381677974725E-07  8.36249928728285E+00
 cg2d: Sum(rhs),rhsMax =  -2.49429696452808E-07  8.36089538401903E+00
 cg2d: Sum(rhs),rhsMax =  -2.49476237002000E-07  8.35935991281295E+00
 cg2d: Sum(rhs),rhsMax =  -2.49520162753925E-07  8.35789146030961E+00
 cg2d: Sum(rhs),rhsMax =  -2.49562525311831E-07  8.35648964985200E+00
 cg2d: Sum(rhs),rhsMax =  -2.49602841506658E-07  8.35515513914879E+00
 cg2d: Sum(rhs),rhsMax =  -2.49640748961610E-07  8.35388971117527E+00
 cg2d: Sum(rhs),rhsMax =  -2.49676844532587E-07  8.35269628610801E+00
 cg2d: Sum(rhs),rhsMax =  -2.49710517152835E-07  8.35157887088272E+00
 cg2d: Sum(rhs),rhsMax =  -2.49741731295217E-07  8.35054250509572E+00
 cg2d: Sum(rhs),rhsMax =  -2.49770394589177E-07  8.34959323059716E+00
 cg2d: Sum(rhs),rhsMax =  -2.49796435980443E-07  8.34873810769870E+00
 cg2d: Sum(rhs),rhsMax =  -2.49819045450295E-07  8.34798512227025E+00
 cg2d: Sum(rhs),rhsMax =  -2.49838244315015E-07  8.34734290261435E+00
 cg2d: Sum(rhs),rhsMax =  -2.49853975731185E-07  8.34682030367283E+00
 cg2d: Sum(rhs),rhsMax =  -2.49866459967052E-07  8.34642602050246E+00
 cg2d: Sum(rhs),rhsMax =  -2.49874005930906E-07  8.34616833018179E+00
 cg2d: Sum(rhs),rhsMax =  -2.49877167846080E-07  8.34605492416921E+00
 cg2d: Sum(rhs),rhsMax =  -2.49876372038216E-07  8.34609271647880E+00
 cg2d: Sum(rhs),rhsMax =  -2.49870495849791E-07  8.34628766951383E+00
 cg2d: Sum(rhs),rhsMax =  -2.49859972711874E-07  8.34664465917166E+00
 cg2d: Sum(rhs),rhsMax =  -2.49844404720534E-07  8.34716735659488E+00
 cg2d: Sum(rhs),rhsMax =  -2.49823550291239E-07  8.34785810988885E+00
 cg2d: Sum(rhs),rhsMax =  -2.49798063123308E-07  8.34871787621402E+00
 cg2d: Sum(rhs),rhsMax =  -2.49766976878618E-07  8.34974617920463E+00
 cg2d: Sum(rhs),rhsMax =  -2.49731257895291E-07  8.35094113608330E+00
 cg2d: Sum(rhs),rhsMax =  -2.49690643272515E-07  8.35229948619608E+00
 cg2d: Sum(rhs),rhsMax =  -2.49645175642854E-07  8.35381675511217E+00
 cg2d: Sum(rhs),rhsMax =  -2.49595025536564E-07  8.35548736188202E+00
 cg2d: Sum(rhs),rhsMax =  -2.49540875074672E-07  8.35730476743729E+00
 cg2d: Sum(rhs),rhsMax =  -2.49482035030724E-07  8.35926164070414E+00
 cg2d: Sum(rhs),rhsMax =  -2.49419819908780E-07  8.36135002375845E+00
 cg2d: Sum(rhs),rhsMax =  -2.49353568904098E-07  8.36356151790629E+00
 EXTERNAL_FIELDS_LOAD, it=   3600630 : Reading new data, i0,i1=   11   12 (prev=   10   11 )
 DIC_FIELDS_LOAD, it=   3600630 : Reading new data, i0,i1=   11   12 (prev=   10   11 )
 cg2d: Sum(rhs),rhsMax =  -2.49283999664840E-07  8.36588746134833E+00
 cg2d: Sum(rhs),rhsMax =  -2.49212149583400E-07  8.36830171267966E+00
 cg2d: Sum(rhs),rhsMax =  -2.49137990238069E-07  8.37078382670868E+00
 cg2d: Sum(rhs),rhsMax =  -2.49062694024360E-07  8.37331347128018E+00
 cg2d: Sum(rhs),rhsMax =  -2.48986417261676E-07  8.37587083487809E+00
 cg2d: Sum(rhs),rhsMax =  -2.48910055233864E-07  8.37843890797547E+00
 cg2d: Sum(rhs),rhsMax =  -2.48833615046351E-07  8.38100282447941E+00
 cg2d: Sum(rhs),rhsMax =  -2.48757785925591E-07  8.38355008718710E+00
 cg2d: Sum(rhs),rhsMax =  -2.48682930248378E-07  8.38607101327765E+00
 cg2d: Sum(rhs),rhsMax =  -2.48608408526252E-07  8.38855886249661E+00
 cg2d: Sum(rhs),rhsMax =  -2.48536004221478E-07  8.39100987040112E+00
 cg2d: Sum(rhs),rhsMax =  -2.48464210983457E-07  8.39342320470582E+00
 cg2d: Sum(rhs),rhsMax =  -2.48393547508385E-07  8.39580086228628E+00
 cg2d: Sum(rhs),rhsMax =  -2.48323665630323E-07  8.39814747768731E+00
 cg2d: Sum(rhs),rhsMax =  -2.48254892198929E-07  8.40047003473604E+00
 cg2d: Sum(rhs),rhsMax =  -2.48186310614074E-07  8.40277751423481E+00
 cg2d: Sum(rhs),rhsMax =  -2.48117892454047E-07  8.40508048455822E+00
 cg2d: Sum(rhs),rhsMax =  -2.48049687456842E-07  8.40739063604165E+00
 cg2d: Sum(rhs),rhsMax =  -2.47980871392883E-07  8.40972032300375E+00
 cg2d: Sum(rhs),rhsMax =  -2.47910648454308E-07  8.41208213189281E+00
 cg2d: Sum(rhs),rhsMax =  -2.47839537337313E-07  8.41448816606350E+00
 cg2d: Sum(rhs),rhsMax =  -2.47766863026300E-07  8.41694970128980E+00
 cg2d: Sum(rhs),rhsMax =  -2.47691964716523E-07  8.41947813091076E+00
 cg2d: Sum(rhs),rhsMax =  -2.47614714510291E-07  8.42209648974696E+00
 cg2d: Sum(rhs),rhsMax =  -2.47534813979655E-07  8.42482035527151E+00
 cg2d: Sum(rhs),rhsMax =  -2.47451126256237E-07  8.42766351995909E+00
 cg2d: Sum(rhs),rhsMax =  -2.47363992400551E-07  8.43063783312212E+00
 cg2d: Sum(rhs),rhsMax =  -2.47272517128749E-07  8.43375283121391E+00
 cg2d: Sum(rhs),rhsMax =  -2.47176934919935E-07  8.43701559654336E+00
 cg2d: Sum(rhs),rhsMax =  -2.47076883397312E-07  8.44043066353450E+00
 cg2d: Sum(rhs),rhsMax =  -2.46972234663190E-07  8.44400002260639E+00
 cg2d: Sum(rhs),rhsMax =  -2.46863251618379E-07  8.44772316054511E+00
 cg2d: Sum(rhs),rhsMax =  -2.46750062160572E-07  8.45159719138741E+00
 cg2d: Sum(rhs),rhsMax =  -2.46632367861821E-07  8.45561701011588E+00
 cg2d: Sum(rhs),rhsMax =  -2.46511149271100E-07  8.45977551282957E+00
 cg2d: Sum(rhs),rhsMax =  -2.46386285596145E-07  8.46406373659226E+00
 cg2d: Sum(rhs),rhsMax =  -2.46257769731528E-07  8.46847122879392E+00
 cg2d: Sum(rhs),rhsMax =  -2.46126411695968E-07  8.47298635145432E+00
 cg2d: Sum(rhs),rhsMax =  -2.45992481495705E-07  8.47759653567383E+00
 cg2d: Sum(rhs),rhsMax =  -2.45856256242405E-07  8.48228855871733E+00
 cg2d: Sum(rhs),rhsMax =  -2.45718460689659E-07  8.48704884333580E+00
 cg2d: Sum(rhs),rhsMax =  -2.45578725355244E-07  8.49186380279765E+00
 cg2d: Sum(rhs),rhsMax =  -2.45438343426940E-07  8.49672023122521E+00
 cg2d: Sum(rhs),rhsMax =  -2.45297442802439E-07  8.50160566769727E+00
 cg2d: Sum(rhs),rhsMax =  -2.45155710842937E-07  8.50650876168224E+00
 cg2d: Sum(rhs),rhsMax =  -2.45014355471085E-07  8.51141938832254E+00
 cg2d: Sum(rhs),rhsMax =  -2.44872978782951E-07  8.51632882603140E+00
 cg2d: Sum(rhs),rhsMax =  -2.44732156318150E-07  8.52122992574505E+00
 cg2d: Sum(rhs),rhsMax =  -2.44592122555787E-07  8.52611725421215E+00
 cg2d: Sum(rhs),rhsMax =  -2.44452138531415E-07  8.53098720300080E+00
 cg2d: Sum(rhs),rhsMax =  -2.44313056896317E-07  8.53583804386303E+00
 cg2d: Sum(rhs),rhsMax =  -2.44175289765280E-07  8.54066993807463E+00
 cg2d: Sum(rhs),rhsMax =  -2.44037558161381E-07  8.54548489389639E+00
 cg2d: Sum(rhs),rhsMax =  -2.43900487362225E-07  8.55028665503631E+00
 cg2d: Sum(rhs),rhsMax =  -2.43763828677857E-07  8.55508055409759E+00
 cg2d: Sum(rhs),rhsMax =  -2.43627631846266E-07  8.55987334584090E+00
 cg2d: Sum(rhs),rhsMax =  -2.43490916318478E-07  8.56467304589797E+00
 cg2d: Sum(rhs),rhsMax =  -2.43354129736417E-07  8.56948875081293E+00
 cg2d: Sum(rhs),rhsMax =  -2.43216923934142E-07  8.57433041210705E+00
 cg2d: Sum(rhs),rhsMax =  -2.43078602579772E-07  8.57920857075689E+00
 EXTERNAL_FIELDS_LOAD, it=   3600690 : Reading new data, i0,i1=   12    1 (prev=   11   12 )
 DIC_FIELDS_LOAD, it=   3600690 : Reading new data, i0,i1=   12    1 (prev=   11   12 )
 cg2d: Sum(rhs),rhsMax =  -2.42939044881041E-07  8.58413406052202E+00
 cg2d: Sum(rhs),rhsMax =  -2.42799337968336E-07  8.58909115986565E+00
 cg2d: Sum(rhs),rhsMax =  -2.42658693139219E-07  8.59407439112439E+00
 cg2d: Sum(rhs),rhsMax =  -2.42517621984462E-07  8.59907838916988E+00
 cg2d: Sum(rhs),rhsMax =  -2.42376209769191E-07  8.60409812483420E+00
 cg2d: Sum(rhs),rhsMax =  -2.42234591496526E-07  8.60912903142987E+00
 cg2d: Sum(rhs),rhsMax =  -2.42093065594418E-07  8.61416710086381E+00
 cg2d: Sum(rhs),rhsMax =  -2.41951582324873E-07  8.61920891727868E+00
 cg2d: Sum(rhs),rhsMax =  -2.41810418799560E-07  8.62425159962176E+00
 cg2d: Sum(rhs),rhsMax =  -2.41669411593648E-07  8.62929265748306E+00
 cg2d: Sum(rhs),rhsMax =  -2.41528212541198E-07  8.63432985252268E+00
 cg2d: Sum(rhs),rhsMax =  -2.41388200095116E-07  8.63936110467875E+00
 cg2d: Sum(rhs),rhsMax =  -2.41247725796256E-07  8.64438452071694E+00
 cg2d: Sum(rhs),rhsMax =  -2.41107890985859E-07  8.64939845502298E+00
 cg2d: Sum(rhs),rhsMax =  -2.40969008302727E-07  8.65440163740473E+00
 cg2d: Sum(rhs),rhsMax =  -2.40829955089339E-07  8.65939341167613E+00
 cg2d: Sum(rhs),rhsMax =  -2.40691825581507E-07  8.66437380926046E+00
 cg2d: Sum(rhs),rhsMax =  -2.40553994501624E-07  8.66934351194661E+00
 cg2d: Sum(rhs),rhsMax =  -2.40416618169093E-07  8.67430280369745E+00
 cg2d: Sum(rhs),rhsMax =  -2.40279604213356E-07  8.67925548690400E+00
 cg2d: Sum(rhs),rhsMax =  -2.40142895790996E-07  8.68420665617491E+00
 cg2d: Sum(rhs),rhsMax =  -2.40006130525217E-07  8.68916145963729E+00
 cg2d: Sum(rhs),rhsMax =  -2.39869450524566E-07  8.69412491880011E+00
 cg2d: Sum(rhs),rhsMax =  -2.39731853923786E-07  8.69910175166197E+00
 cg2d: Sum(rhs),rhsMax =  -2.39594477591254E-07  8.70409625463335E+00
 cg2d: Sum(rhs),rhsMax =  -2.39456610984234E-07  8.70911224623719E+00
 cg2d: Sum(rhs),rhsMax =  -2.39318524108967E-07  8.71415300952969E+00
 cg2d: Sum(rhs),rhsMax =  -2.39179819061519E-07  8.71922107400600E+00
 cg2d: Sum(rhs),rhsMax =  -2.39039941618557E-07  8.72431810322763E+00
 cg2d: Sum(rhs),rhsMax =  -2.38899893645339E-07  8.72944491034874E+00
 cg2d: Sum(rhs),rhsMax =  -2.38758616433188E-07  8.73460150471141E+00
 cg2d: Sum(rhs),rhsMax =  -2.38616948422532E-07  8.73978715591014E+00
 cg2d: Sum(rhs),rhsMax =  -2.38474669345123E-07  8.74500048107581E+00
 cg2d: Sum(rhs),rhsMax =  -2.38332305002587E-07  8.75023954225340E+00
 cg2d: Sum(rhs),rhsMax =  -2.38189322487870E-07  8.75550195605016E+00
 cg2d: Sum(rhs),rhsMax =  -2.38046069966913E-07  8.76078500778492E+00
 cg2d: Sum(rhs),rhsMax =  -2.37902014532665E-07  8.76608574658582E+00
 cg2d: Sum(rhs),rhsMax =  -2.37757973309272E-07  8.77140108996162E+00
 cg2d: Sum(rhs),rhsMax =  -2.37613583919938E-07  8.77672791128606E+00
 cg2d: Sum(rhs),rhsMax =  -2.37469464536844E-07  8.78206311907848E+00
(PID.TID 0000.0001) Did not write pickup because writePickupAtEnd = FALSE
 cg2d: Sum(rhs),rhsMax =  -2.44783471714527E-07  8.51897418323859E+00
 cg2d: Sum(rhs),rhsMax =  -2.44957739425899E-07  8.51294224856493E+00
 cg2d: Sum(rhs),rhsMax =  -2.45131850817870E-07  8.50690564885983E+00
 cg2d: Sum(rhs),rhsMax =  -2.45306104318388E-07  8.50087010325378E+00
 cg2d: Sum(rhs),rhsMax =  -2.45480840987966E-07  8.49484030788981E+00
 cg2d: Sum(rhs),rhsMax =  -2.45655421338142E-07  8.48882091652209E+00
 cg2d: Sum(rhs),rhsMax =  -2.45829966161182E-07  8.48281648598470E+00
 cg2d: Sum(rhs),rhsMax =  -2.46003693860075E-07  8.47683141604414E+00
 cg2d: Sum(rhs),rhsMax =  -2.46177087603883E-07  8.47086986481543E+00
 cg2d: Sum(rhs),rhsMax =  -2.46350516874827E-07  8.46493565647207E+00
 EXTERNAL_FIELDS_LOAD, it=   3600570 : Reading new data, i0,i1=   10   11 (prev=    9    1 )
 DIC_FIELDS_LOAD, it=   3600570 : Reading new data, i0,i1=   10   11 (prev=    9   10 )
 cg2d: Sum(rhs),rhsMax =  -2.46522958491369E-07  8.45903217397129E+00
 cg2d: Sum(rhs),rhsMax =  -2.46693353744831E-07  8.45319776100662E+00
 cg2d: Sum(rhs),rhsMax =  -2.46861752373206E-07  8.44745780781015E+00
 cg2d: Sum(rhs),rhsMax =  -2.47026463284783E-07  8.44183689308228E+00
 cg2d: Sum(rhs),rhsMax =  -2.47187230684176E-07  8.43635808123200E+00
 cg2d: Sum(rhs),rhsMax =  -2.47343706405445E-07  8.43104233122613E+00
 cg2d: Sum(rhs),rhsMax =  -2.47495002270171E-07  8.42590806033104E+00
 cg2d: Sum(rhs),rhsMax =  -2.47640862482967E-07  8.42097079337588E+00
 cg2d: Sum(rhs),rhsMax =  -2.47780199913450E-07  8.41624287670950E+00
 cg2d: Sum(rhs),rhsMax =  -2.47913433781832E-07  8.41173327531019E+00
 cg2d: Sum(rhs),rhsMax =  -2.48040628036961E-07  8.40744751803125E+00
 cg2d: Sum(rhs),rhsMax =  -2.48160993976398E-07  8.40338776690083E+00
 cg2d: Sum(rhs),rhsMax =  -2.48274659497838E-07  8.39955295260282E+00
 cg2d: Sum(rhs),rhsMax =  -2.48382001188929E-07  8.39593904397255E+00
 cg2d: Sum(rhs),rhsMax =  -2.48483310372194E-07  8.39253935780259E+00
 cg2d: Sum(rhs),rhsMax =  -2.48578452044512E-07  8.38934486115791E+00
 cg2d: Sum(rhs),rhsMax =  -2.48667660684987E-07  8.38634455564178E+00
 cg2d: Sum(rhs),rhsMax =  -2.48751881315457E-07  8.38352593271183E+00
 cg2d: Sum(rhs),rhsMax =  -2.48830964721947E-07  8.38087545512510E+00
 cg2d: Sum(rhs),rhsMax =  -2.48905820399159E-07  8.37837910210342E+00
 cg2d: Sum(rhs),rhsMax =  -2.48976242289700E-07  8.37602295704436E+00
 cg2d: Sum(rhs),rhsMax =  -2.49042699351776E-07  8.37379380797618E+00
 cg2d: Sum(rhs),rhsMax =  -2.49106562932866E-07  8.37167959361354E+00
 cg2d: Sum(rhs),rhsMax =  -2.49166241417242E-07  8.36966926830838E+00
 cg2d: Sum(rhs),rhsMax =  -2.49223795378839E-07  8.36775333408158E+00
 cg2d: Sum(rhs),rhsMax =  -2.49279089814536E-07  8.36592380342866E+00
 cg2d: Sum(rhs),rhsMax =  -2.49331364443606E-07  8.36417416133343E+00
 cg2d: Sum(rhs),rhsMax =  -2.49381677974725E-07  8.36249928728285E+00
 cg2d: Sum(rhs),rhsMax =  -2.49429696452808E-07  8.36089538401903E+00
 cg2d: Sum(rhs),rhsMax =  -2.49476237002000E-07  8.35935991281295E+00
 cg2d: Sum(rhs),rhsMax =  -2.49520162753925E-07  8.35789146030961E+00
 cg2d: Sum(rhs),rhsMax =  -2.49562525311831E-07  8.35648964985200E+00
 cg2d: Sum(rhs),rhsMax =  -2.49602841506658E-07  8.35515513914879E+00
 cg2d: Sum(rhs),rhsMax =  -2.49640748961610E-07  8.35388971117527E+00
 cg2d: Sum(rhs),rhsMax =  -2.49676844532587E-07  8.35269628610801E+00
 cg2d: Sum(rhs),rhsMax =  -2.49710517152835E-07  8.35157887088272E+00
 cg2d: Sum(rhs),rhsMax =  -2.49741731295217E-07  8.35054250509572E+00
 cg2d: Sum(rhs),rhsMax =  -2.49770394589177E-07  8.34959323059716E+00
 cg2d: Sum(rhs),rhsMax =  -2.49796435980443E-07  8.34873810769870E+00
 cg2d: Sum(rhs),rhsMax =  -2.49819045450295E-07  8.34798512227025E+00
 cg2d: Sum(rhs),rhsMax =  -2.49838244315015E-07  8.34734290261435E+00
 cg2d: Sum(rhs),rhsMax =  -2.49853975731185E-07  8.34682030367283E+00
 cg2d: Sum(rhs),rhsMax =  -2.49866459967052E-07  8.34642602050246E+00
 cg2d: Sum(rhs),rhsMax =  -2.49874005930906E-07  8.34616833018179E+00
 cg2d: Sum(rhs),rhsMax =  -2.49877167846080E-07  8.34605492416921E+00
 cg2d: Sum(rhs),rhsMax =  -2.49876372038216E-07  8.34609271647880E+00
 cg2d: Sum(rhs),rhsMax =  -2.49870495849791E-07  8.34628766951383E+00
 cg2d: Sum(rhs),rhsMax =  -2.49859972711874E-07  8.34664465917166E+00
 cg2d: Sum(rhs),rhsMax =  -2.49844404720534E-07  8.34716735659488E+00
 cg2d: Sum(rhs),rhsMax =  -2.49823550291239E-07  8.34785810988885E+00
 cg2d: Sum(rhs),rhsMax =  -2.49798063123308E-07  8.34871787621402E+00
 cg2d: Sum(rhs),rhsMax =  -2.49766976878618E-07  8.34974617920463E+00
 cg2d: Sum(rhs),rhsMax =  -2.49731257895291E-07  8.35094113608330E+00
 cg2d: Sum(rhs),rhsMax =  -2.49690643272515E-07  8.35229948619608E+00
 cg2d: Sum(rhs),rhsMax =  -2.49645175642854E-07  8.35381675511217E+00
 cg2d: Sum(rhs),rhsMax =  -2.49595025536564E-07  8.35548736188202E+00
 cg2d: Sum(rhs),rhsMax =  -2.49540875074672E-07  8.35730476743729E+00
 cg2d: Sum(rhs),rhsMax =  -2.49482035030724E-07  8.35926164070414E+00
 cg2d: Sum(rhs),rhsMax =  -2.49419819908780E-07  8.36135002375845E+00
 cg2d: Sum(rhs),rhsMax =  -2.49353568904098E-07  8.36356151790629E+00
 EXTERNAL_FIELDS_LOAD, it=   3600630 : Reading new data, i0,i1=   11   12 (prev=   10   11 )
 DIC_FIELDS_LOAD, it=   3600630 : Reading new data, i0,i1=   11   12 (prev=   10   11 )
 cg2d: Sum(rhs),rhsMax =  -2.49283999664840E-07  8.36588746134833E+00
 cg2d: Sum(rhs),rhsMax =  -2.49212149583400E-07  8.36830171267966E+00
 cg2d: Sum(rhs),rhsMax =  -2.49137990238069E-07  8.37078382670868E+00
 cg2d: Sum(rhs),rhsMax =  -2.49062694024360E-07  8.37331347128018E+00
 cg2d: Sum(rhs),rhsMax =  -2.48986417261676E-07  8.37587083487809E+00
 cg2d: Sum(rhs),rhsMax =  -2.48910055233864E-07  8.37843890797547E+00
 cg2d: Sum(rhs),rhsMax =  -2.48833615046351E-07  8.38100282447941E+00
 cg2d: Sum(rhs),rhsMax =  -2.48757785925591E-07  8.38355008718710E+00
 cg2d: Sum(rhs),rhsMax =  -2.48682930248378E-07  8.38607101327765E+00
 cg2d: Sum(rhs),rhsMax =  -2.48608408526252E-07  8.38855886249661E+00
 cg2d: Sum(rhs),rhsMax =  -2.48536004221478E-07  8.39100987040112E+00
 cg2d: Sum(rhs),rhsMax =  -2.48464210983457E-07  8.39342320470582E+00
 cg2d: Sum(rhs),rhsMax =  -2.48393547508385E-07  8.39580086228628E+00
 cg2d: Sum(rhs),rhsMax =  -2.48323665630323E-07  8.39814747768731E+00
 cg2d: Sum(rhs),rhsMax =  -2.48254892198929E-07  8.40047003473604E+00
 cg2d: Sum(rhs),rhsMax =  -2.48186310614074E-07  8.40277751423481E+00
 cg2d: Sum(rhs),rhsMax =  -2.48117892454047E-07  8.40508048455822E+00
 cg2d: Sum(rhs),rhsMax =  -2.48049687456842E-07  8.40739063604165E+00
 cg2d: Sum(rhs),rhsMax =  -2.47980871392883E-07  8.40972032300375E+00
 cg2d: Sum(rhs),rhsMax =  -2.47910648454308E-07  8.41208213189281E+00
 cg2d: Sum(rhs),rhsMax =  -2.47839537337313E-07  8.41448816606350E+00
 cg2d: Sum(rhs),rhsMax =  -2.47766863026300E-07  8.41694970128980E+00
 cg2d: Sum(rhs),rhsMax =  -2.47691964716523E-07  8.41947813091076E+00
 cg2d: Sum(rhs),rhsMax =  -2.47614714510291E-07  8.42209648974696E+00
 cg2d: Sum(rhs),rhsMax =  -2.47534813979655E-07  8.42482035527151E+00
 cg2d: Sum(rhs),rhsMax =  -2.47451126256237E-07  8.42766351995909E+00
 cg2d: Sum(rhs),rhsMax =  -2.47363992400551E-07  8.43063783312212E+00
 cg2d: Sum(rhs),rhsMax =  -2.47272517128749E-07  8.43375283121391E+00
 cg2d: Sum(rhs),rhsMax =  -2.47176934919935E-07  8.43701559654336E+00
 cg2d: Sum(rhs),rhsMax =  -2.47076883397312E-07  8.44043066353450E+00
 cg2d: Sum(rhs),rhsMax =  -2.46972234663190E-07  8.44400002260639E+00
 cg2d: Sum(rhs),rhsMax =  -2.46863251618379E-07  8.44772316054511E+00
 cg2d: Sum(rhs),rhsMax =  -2.46750062160572E-07  8.45159719138741E+00
 cg2d: Sum(rhs),rhsMax =  -2.46632367861821E-07  8.45561701011588E+00
 cg2d: Sum(rhs),rhsMax =  -2.46511149271100E-07  8.45977551282957E+00
 cg2d: Sum(rhs),rhsMax =  -2.46386285596145E-07  8.46406373659226E+00
 cg2d: Sum(rhs),rhsMax =  -2.46257769731528E-07  8.46847122879392E+00
 cg2d: Sum(rhs),rhsMax =  -2.46126411695968E-07  8.47298635145432E+00
 cg2d: Sum(rhs),rhsMax =  -2.45992481495705E-07  8.47759653567383E+00
 cg2d: Sum(rhs),rhsMax =  -2.45856256242405E-07  8.48228855871733E+00
 cg2d: Sum(rhs),rhsMax =  -2.45718460689659E-07  8.48704884333580E+00
 cg2d: Sum(rhs),rhsMax =  -2.45578725355244E-07  8.49186380279765E+00
 cg2d: Sum(rhs),rhsMax =  -2.45438343426940E-07  8.49672023122521E+00
 cg2d: Sum(rhs),rhsMax =  -2.45297442802439E-07  8.50160566769727E+00
 cg2d: Sum(rhs),rhsMax =  -2.45155710842937E-07  8.50650876168224E+00
 cg2d: Sum(rhs),rhsMax =  -2.45014355471085E-07  8.51141938832254E+00
 cg2d: Sum(rhs),rhsMax =  -2.44872978782951E-07  8.51632882603140E+00
 cg2d: Sum(rhs),rhsMax =  -2.44732156318150E-07  8.52122992574505E+00
 cg2d: Sum(rhs),rhsMax =  -2.44592122555787E-07  8.52611725421215E+00
 cg2d: Sum(rhs),rhsMax =  -2.44452138531415E-07  8.53098720300080E+00
 cg2d: Sum(rhs),rhsMax =  -2.44313056896317E-07  8.53583804386303E+00
 cg2d: Sum(rhs),rhsMax =  -2.44175289765280E-07  8.54066993807463E+00
 cg2d: Sum(rhs),rhsMax =  -2.44037558161381E-07  8.54548489389639E+00
 cg2d: Sum(rhs),rhsMax =  -2.43900487362225E-07  8.55028665503631E+00
 cg2d: Sum(rhs),rhsMax =  -2.43763828677857E-07  8.55508055409759E+00
 cg2d: Sum(rhs),rhsMax =  -2.43627631846266E-07  8.55987334584090E+00
 cg2d: Sum(rhs),rhsMax =  -2.43490916318478E-07  8.56467304589797E+00
 cg2d: Sum(rhs),rhsMax =  -2.43354129736417E-07  8.56948875081293E+00
 cg2d: Sum(rhs),rhsMax =  -2.43216923934142E-07  8.57433041210705E+00
 cg2d: Sum(rhs),rhsMax =  -2.43078602579772E-07  8.57920857075689E+00
 EXTERNAL_FIELDS_LOAD, it=   3600690 : Reading new data, i0,i1=   12    1 (prev=   11   12 )
 DIC_FIELDS_LOAD, it=   3600690 : Reading new data, i0,i1=   12    1 (prev=   11   12 )
 cg2d: Sum(rhs),rhsMax =  -2.42939044881041E-07  8.58413406052202E+00
 cg2d: Sum(rhs),rhsMax =  -2.42799337968336E-07  8.58909115986565E+00
 cg2d: Sum(rhs),rhsMax =  -2.42658693139219E-07  8.59407439112439E+00
 cg2d: Sum(rhs),rhsMax =  -2.42517621984462E-07  8.59907838916988E+00
 cg2d: Sum(rhs),rhsMax =  -2.42376209769191E-07  8.60409812483420E+00
 cg2d: Sum(rhs),rhsMax =  -2.42234591496526E-07  8.60912903142987E+00
 cg2d: Sum(rhs),rhsMax =  -2.42093065594418E-07  8.61416710086381E+00
 cg2d: Sum(rhs),rhsMax =  -2.41951582324873E-07  8.61920891727868E+00
 cg2d: Sum(rhs),rhsMax =  -2.41810418799560E-07  8.62425159962176E+00
 cg2d: Sum(rhs),rhsMax =  -2.41669411593648E-07  8.62929265748306E+00
 cg2d: Sum(rhs),rhsMax =  -2.41528212541198E-07  8.63432985252268E+00
 cg2d: Sum(rhs),rhsMax =  -2.41388200095116E-07  8.63936110467875E+00
 cg2d: Sum(rhs),rhsMax =  -2.41247725796256E-07  8.64438452071694E+00
 cg2d: Sum(rhs),rhsMax =  -2.41107890985859E-07  8.64939845502298E+00
 cg2d: Sum(rhs),rhsMax =  -2.40969008302727E-07  8.65440163740473E+00
 cg2d: Sum(rhs),rhsMax =  -2.40829955089339E-07  8.65939341167613E+00
 cg2d: Sum(rhs),rhsMax =  -2.40691825581507E-07  8.66437380926046E+00
 cg2d: Sum(rhs),rhsMax =  -2.40553994501624E-07  8.66934351194661E+00
 cg2d: Sum(rhs),rhsMax =  -2.40416618169093E-07  8.67430280369745E+00
 cg2d: Sum(rhs),rhsMax =  -2.40279604213356E-07  8.67925548690400E+00
 cg2d: Sum(rhs),rhsMax =  -2.40142895790996E-07  8.68420665617491E+00
 cg2d: Sum(rhs),rhsMax =  -2.40006130525217E-07  8.68916145963729E+00
 cg2d: Sum(rhs),rhsMax =  -2.39869450524566E-07  8.69412491880011E+00
 cg2d: Sum(rhs),rhsMax =  -2.39731853923786E-07  8.69910175166197E+00
 cg2d: Sum(rhs),rhsMax =  -2.39594477591254E-07  8.70409625463335E+00
 cg2d: Sum(rhs),rhsMax =  -2.39456610984234E-07  8.70911224623719E+00
 cg2d: Sum(rhs),rhsMax =  -2.39318524108967E-07  8.71415300952969E+00
 cg2d: Sum(rhs),rhsMax =  -2.39179819061519E-07  8.71922107400600E+00
 cg2d: Sum(rhs),rhsMax =  -2.39039941618557E-07  8.72431810322763E+00
 cg2d: Sum(rhs),rhsMax =  -2.38899893645339E-07  8.72944491034874E+00
 cg2d: Sum(rhs),rhsMax =  -2.38758616433188E-07  8.73460150471141E+00
 cg2d: Sum(rhs),rhsMax =  -2.38616948422532E-07  8.73978715591014E+00
 cg2d: Sum(rhs),rhsMax =  -2.38474669345123E-07  8.74500048107581E+00
 cg2d: Sum(rhs),rhsMax =  -2.38332305002587E-07  8.75023954225340E+00
 cg2d: Sum(rhs),rhsMax =  -2.38189322487870E-07  8.75550195605016E+00
 cg2d: Sum(rhs),rhsMax =  -2.38046069966913E-07  8.76078500778492E+00
 cg2d: Sum(rhs),rhsMax =  -2.37902014532665E-07  8.76608574658582E+00
 cg2d: Sum(rhs),rhsMax =  -2.37757973309272E-07  8.77140108996162E+00
 cg2d: Sum(rhs),rhsMax =  -2.37613583919938E-07  8.77672791128606E+00
 cg2d: Sum(rhs),rhsMax =  -2.37469464536844E-07  8.78206311907848E+00
(PID.TID 0000.0001) Did not write pickup because writePickupAtEnd = FALSE
 cg2d: Sum(rhs),rhsMax =  -2.44783471714527E-07  8.51897418323859E+00
 cg2d: Sum(rhs),rhsMax =  -2.44957739425899E-07  8.51294224856493E+00
 cg2d: Sum(rhs),rhsMax =  -2.45131850817870E-07  8.50690564885983E+00
 cg2d: Sum(rhs),rhsMax =  -2.45306104318388E-07  8.50087010325378E+00
 cg2d: Sum(rhs),rhsMax =  -2.45480840987966E-07  8.49484030788981E+00
 cg2d: Sum(rhs),rhsMax =  -2.45655421338142E-07  8.48882091652209E+00
 cg2d: Sum(rhs),rhsMax =  -2.45829966161182E-07  8.48281648598470E+00
 cg2d: Sum(rhs),rhsMax =  -2.46003693860075E-07  8.47683141604414E+00
 cg2d: Sum(rhs),rhsMax =  -2.46177087603883E-07  8.47086986481543E+00
 cg2d: Sum(rhs),rhsMax =  -2.46350516874827E-07  8.46493565647207E+00
 EXTERNAL_FIELDS_LOAD, it=   3600570 : Reading new data, i0,i1=   10   11 (prev=    9    1 )
 DIC_FIELDS_LOAD, it=   3600570 : Reading new data, i0,i1=   10   11 (prev=    9   10 )
 cg2d: Sum(rhs),rhsMax =  -2.46522958491369E-07  8.45903217397129E+00
 cg2d: Sum(rhs),rhsMax =  -2.46693353744831E-07  8.45319776100662E+00
 cg2d: Sum(rhs),rhsMax =  -2.46861752373206E-07  8.44745780781015E+00
 cg2d: Sum(rhs),rhsMax =  -2.47026463284783E-07  8.44183689308228E+00
 cg2d: Sum(rhs),rhsMax =  -2.47187230684176E-07  8.43635808123200E+00
 cg2d: Sum(rhs),rhsMax =  -2.47343706405445E-07  8.43104233122613E+00
 cg2d: Sum(rhs),rhsMax =  -2.47495002270171E-07  8.42590806033104E+00
 cg2d: Sum(rhs),rhsMax =  -2.47640862482967E-07  8.42097079337588E+00
 cg2d: Sum(rhs),rhsMax =  -2.47780199913450E-07  8.41624287670950E+00
 cg2d: Sum(rhs),rhsMax =  -2.47913433781832E-07  8.41173327531019E+00
 cg2d: Sum(rhs),rhsMax =  -2.48040628036961E-07  8.40744751803125E+00
 cg2d: Sum(rhs),rhsMax =  -2.48160993976398E-07  8.40338776690083E+00
 cg2d: Sum(rhs),rhsMax =  -2.48274659497838E-07  8.39955295260282E+00
 cg2d: Sum(rhs),rhsMax =  -2.48382001188929E-07  8.39593904397255E+00
 cg2d: Sum(rhs),rhsMax =  -2.48483310372194E-07  8.39253935780259E+00
 cg2d: Sum(rhs),rhsMax =  -2.48578452044512E-07  8.38934486115791E+00
 cg2d: Sum(rhs),rhsMax =  -2.48667660684987E-07  8.38634455564178E+00
 cg2d: Sum(rhs),rhsMax =  -2.48751881315457E-07  8.38352593271183E+00
 cg2d: Sum(rhs),rhsMax =  -2.48830964721947E-07  8.38087545512510E+00
 cg2d: Sum(rhs),rhsMax =  -2.48905820399159E-07  8.37837910210342E+00
 cg2d: Sum(rhs),rhsMax =  -2.48976242289700E-07  8.37602295704436E+00
 cg2d: Sum(rhs),rhsMax =  -2.49042699351776E-07  8.37379380797618E+00
 cg2d: Sum(rhs),rhsMax =  -2.49106562932866E-07  8.37167959361354E+00
 cg2d: Sum(rhs),rhsMax =  -2.49166241417242E-07  8.36966926830838E+00
 cg2d: Sum(rhs),rhsMax =  -2.49223795378839E-07  8.36775333408158E+00
 cg2d: Sum(rhs),rhsMax =  -2.49279089814536E-07  8.36592380342866E+00
 cg2d: Sum(rhs),rhsMax =  -2.49331364443606E-07  8.36417416133343E+00
 cg2d: Sum(rhs),rhsMax =  -2.49381677974725E-07  8.36249928728285E+00
 cg2d: Sum(rhs),rhsMax =  -2.49429696452808E-07  8.36089538401903E+00
 cg2d: Sum(rhs),rhsMax =  -2.49476237002000E-07  8.35935991281295E+00
 cg2d: Sum(rhs),rhsMax =  -2.49520162753925E-07  8.35789146030961E+00
 cg2d: Sum(rhs),rhsMax =  -2.49562525311831E-07  8.35648964985200E+00
 cg2d: Sum(rhs),rhsMax =  -2.49602841506658E-07  8.35515513914879E+00
 cg2d: Sum(rhs),rhsMax =  -2.49640748961610E-07  8.35388971117527E+00
 cg2d: Sum(rhs),rhsMax =  -2.49676844532587E-07  8.35269628610801E+00
 cg2d: Sum(rhs),rhsMax =  -2.49710517152835E-07  8.35157887088272E+00
 cg2d: Sum(rhs),rhsMax =  -2.49741731295217E-07  8.35054250509572E+00
 cg2d: Sum(rhs),rhsMax =  -2.49770394589177E-07  8.34959323059716E+00
 cg2d: Sum(rhs),rhsMax =  -2.49796435980443E-07  8.34873810769870E+00
 cg2d: Sum(rhs),rhsMax =  -2.49819045450295E-07  8.34798512227025E+00
 cg2d: Sum(rhs),rhsMax =  -2.49838244315015E-07  8.34734290261435E+00
 cg2d: Sum(rhs),rhsMax =  -2.49853975731185E-07  8.34682030367283E+00
 cg2d: Sum(rhs),rhsMax =  -2.49866459967052E-07  8.34642602050246E+00
 cg2d: Sum(rhs),rhsMax =  -2.49874005930906E-07  8.34616833018179E+00
 cg2d: Sum(rhs),rhsMax =  -2.49877167846080E-07  8.34605492416921E+00
 cg2d: Sum(rhs),rhsMax =  -2.49876372038216E-07  8.34609271647880E+00
 cg2d: Sum(rhs),rhsMax =  -2.49870495849791E-07  8.34628766951383E+00
 cg2d: Sum(rhs),rhsMax =  -2.49859972711874E-07  8.34664465917166E+00
 cg2d: Sum(rhs),rhsMax =  -2.49844404720534E-07  8.34716735659488E+00
 cg2d: Sum(rhs),rhsMax =  -2.49823550291239E-07  8.34785810988885E+00
 cg2d: Sum(rhs),rhsMax =  -2.49798063123308E-07  8.34871787621402E+00
 cg2d: Sum(rhs),rhsMax =  -2.49766976878618E-07  8.34974617920463E+00
 cg2d: Sum(rhs),rhsMax =  -2.49731257895291E-07  8.35094113608330E+00
 cg2d: Sum(rhs),rhsMax =  -2.49690643272515E-07  8.35229948619608E+00
 cg2d: Sum(rhs),rhsMax =  -2.49645175642854E-07  8.35381675511217E+00
 cg2d: Sum(rhs),rhsMax =  -2.49595025536564E-07  8.35548736188202E+00
 cg2d: Sum(rhs),rhsMax =  -2.49540875074672E-07  8.35730476743729E+00
 cg2d: Sum(rhs),rhsMax =  -2.49482035030724E-07  8.35926164070414E+00
 cg2d: Sum(rhs),rhsMax =  -2.49419819908780E-07  8.36135002375845E+00
 cg2d: Sum(rhs),rhsMax =  -2.49353568904098E-07  8.36356151790629E+00
 EXTERNAL_FIELDS_LOAD, it=   3600630 : Reading new data, i0,i1=   11   12 (prev=   10   11 )
 DIC_FIELDS_LOAD, it=   3600630 : Reading new data, i0,i1=   11   12 (prev=   10   11 )
 cg2d: Sum(rhs),rhsMax =  -2.49283999664840E-07  8.36588746134833E+00
 cg2d: Sum(rhs),rhsMax =  -2.49212149583400E-07  8.36830171267966E+00
 cg2d: Sum(rhs),rhsMax =  -2.49137990238069E-07  8.37078382670868E+00
 cg2d: Sum(rhs),rhsMax =  -2.49062694024360E-07  8.37331347128018E+00
 cg2d: Sum(rhs),rhsMax =  -2.48986417261676E-07  8.37587083487809E+00
 cg2d: Sum(rhs),rhsMax =  -2.48910055233864E-07  8.37843890797547E+00
 cg2d: Sum(rhs),rhsMax =  -2.48833615046351E-07  8.38100282447941E+00
 cg2d: Sum(rhs),rhsMax =  -2.48757785925591E-07  8.38355008718710E+00
 cg2d: Sum(rhs),rhsMax =  -2.48682930248378E-07  8.38607101327765E+00
 cg2d: Sum(rhs),rhsMax =  -2.48608408526252E-07  8.38855886249661E+00
 cg2d: Sum(rhs),rhsMax =  -2.48536004221478E-07  8.39100987040112E+00
 cg2d: Sum(rhs),rhsMax =  -2.48464210983457E-07  8.39342320470582E+00
 cg2d: Sum(rhs),rhsMax =  -2.48393547508385E-07  8.39580086228628E+00
 cg2d: Sum(rhs),rhsMax =  -2.48323665630323E-07  8.39814747768731E+00
 cg2d: Sum(rhs),rhsMax =  -2.48254892198929E-07  8.40047003473604E+00
 cg2d: Sum(rhs),rhsMax =  -2.48186310614074E-07  8.40277751423481E+00
 cg2d: Sum(rhs),rhsMax =  -2.48117892454047E-07  8.40508048455822E+00
 cg2d: Sum(rhs),rhsMax =  -2.48049687456842E-07  8.40739063604165E+00
 cg2d: Sum(rhs),rhsMax =  -2.47980871392883E-07  8.40972032300375E+00
 cg2d: Sum(rhs),rhsMax =  -2.47910648454308E-07  8.41208213189281E+00
 cg2d: Sum(rhs),rhsMax =  -2.47839537337313E-07  8.41448816606350E+00
 cg2d: Sum(rhs),rhsMax =  -2.47766863026300E-07  8.41694970128980E+00
 cg2d: Sum(rhs),rhsMax =  -2.47691964716523E-07  8.41947813091076E+00
 cg2d: Sum(rhs),rhsMax =  -2.47614714510291E-07  8.42209648974696E+00
 cg2d: Sum(rhs),rhsMax =  -2.47534813979655E-07  8.42482035527151E+00
 cg2d: Sum(rhs),rhsMax =  -2.47451126256237E-07  8.42766351995909E+00
 cg2d: Sum(rhs),rhsMax =  -2.47363992400551E-07  8.43063783312212E+00
 cg2d: Sum(rhs),rhsMax =  -2.47272517128749E-07  8.43375283121391E+00
 cg2d: Sum(rhs),rhsMax =  -2.47176934919935E-07  8.43701559654336E+00
 cg2d: Sum(rhs),rhsMax =  -2.47076883397312E-07  8.44043066353450E+00
 cg2d: Sum(rhs),rhsMax =  -2.46972234663190E-07  8.44400002260639E+00
 cg2d: Sum(rhs),rhsMax =  -2.46863251618379E-07  8.44772316054511E+00
 cg2d: Sum(rhs),rhsMax =  -2.46750062160572E-07  8.45159719138741E+00
 cg2d: Sum(rhs),rhsMax =  -2.46632367861821E-07  8.45561701011588E+00
 cg2d: Sum(rhs),rhsMax =  -2.46511149271100E-07  8.45977551282957E+00
 cg2d: Sum(rhs),rhsMax =  -2.46386285596145E-07  8.46406373659226E+00
 cg2d: Sum(rhs),rhsMax =  -2.46257769731528E-07  8.46847122879392E+00
 cg2d: Sum(rhs),rhsMax =  -2.46126411695968E-07  8.47298635145432E+00
 cg2d: Sum(rhs),rhsMax =  -2.45992481495705E-07  8.47759653567383E+00
 cg2d: Sum(rhs),rhsMax =  -2.45856256242405E-07  8.48228855871733E+00
 cg2d: Sum(rhs),rhsMax =  -2.45718460689659E-07  8.48704884333580E+00
 cg2d: Sum(rhs),rhsMax =  -2.45578725355244E-07  8.49186380279765E+00
 cg2d: Sum(rhs),rhsMax =  -2.45438343426940E-07  8.49672023122521E+00
 cg2d: Sum(rhs),rhsMax =  -2.45297442802439E-07  8.50160566769727E+00
 cg2d: Sum(rhs),rhsMax =  -2.45155710842937E-07  8.50650876168224E+00
 cg2d: Sum(rhs),rhsMax =  -2.45014355471085E-07  8.51141938832254E+00
 cg2d: Sum(rhs),rhsMax =  -2.44872978782951E-07  8.51632882603140E+00
 cg2d: Sum(rhs),rhsMax =  -2.44732156318150E-07  8.52122992574505E+00
 cg2d: Sum(rhs),rhsMax =  -2.44592122555787E-07  8.52611725421215E+00
 cg2d: Sum(rhs),rhsMax =  -2.44452138531415E-07  8.53098720300080E+00
 cg2d: Sum(rhs),rhsMax =  -2.44313056896317E-07  8.53583804386303E+00
 cg2d: Sum(rhs),rhsMax =  -2.44175289765280E-07  8.54066993807463E+00
 cg2d: Sum(rhs),rhsMax =  -2.44037558161381E-07  8.54548489389639E+00
 cg2d: Sum(rhs),rhsMax =  -2.43900487362225E-07  8.55028665503631E+00
 cg2d: Sum(rhs),rhsMax =  -2.43763828677857E-07  8.55508055409759E+00
 cg2d: Sum(rhs),rhsMax =  -2.43627631846266E-07  8.55987334584090E+00
 cg2d: Sum(rhs),rhsMax =  -2.43490916318478E-07  8.56467304589797E+00
 cg2d: Sum(rhs),rhsMax =  -2.43354129736417E-07  8.56948875081293E+00
 cg2d: Sum(rhs),rhsMax =  -2.43216923934142E-07  8.57433041210705E+00
 cg2d: Sum(rhs),rhsMax =  -2.43078602579772E-07  8.57920857075689E+00
 EXTERNAL_FIELDS_LOAD, it=   3600690 : Reading new data, i0,i1=   12    1 (prev=   11   12 )
 DIC_FIELDS_LOAD, it=   3600690 : Reading new data, i0,i1=   12    1 (prev=   11   12 )
 cg2d: Sum(rhs),rhsMax =  -2.42939044881041E-07  8.58413406052202E+00
 cg2d: Sum(rhs),rhsMax =  -2.42799337968336E-07  8.58909115986565E+00
 cg2d: Sum(rhs),rhsMax =  -2.42658693139219E-07  8.59407439112439E+00
 cg2d: Sum(rhs),rhsMax =  -2.42517621984462E-07  8.59907838916988E+00
 cg2d: Sum(rhs),rhsMax =  -2.42376209769191E-07  8.60409812483420E+00
 cg2d: Sum(rhs),rhsMax =  -2.42234591496526E-07  8.60912903142987E+00
 cg2d: Sum(rhs),rhsMax =  -2.42093065594418E-07  8.61416710086381E+00
 cg2d: Sum(rhs),rhsMax =  -2.41951582324873E-07  8.61920891727868E+00
 cg2d: Sum(rhs),rhsMax =  -2.41810418799560E-07  8.62425159962176E+00
 cg2d: Sum(rhs),rhsMax =  -2.41669411593648E-07  8.62929265748306E+00
 cg2d: Sum(rhs),rhsMax =  -2.41528212541198E-07  8.63432985252268E+00
 cg2d: Sum(rhs),rhsMax =  -2.41388200095116E-07  8.63936110467875E+00
 cg2d: Sum(rhs),rhsMax =  -2.41247725796256E-07  8.64438452071694E+00
 cg2d: Sum(rhs),rhsMax =  -2.41107890985859E-07  8.64939845502298E+00
 cg2d: Sum(rhs),rhsMax =  -2.40969008302727E-07  8.65440163740473E+00
 cg2d: Sum(rhs),rhsMax =  -2.40829955089339E-07  8.65939341167613E+00
 cg2d: Sum(rhs),rhsMax =  -2.40691825581507E-07  8.66437380926046E+00
 cg2d: Sum(rhs),rhsMax =  -2.40553994501624E-07  8.66934351194661E+00
 cg2d: Sum(rhs),rhsMax =  -2.40416618169093E-07  8.67430280369745E+00
 cg2d: Sum(rhs),rhsMax =  -2.40279604213356E-07  8.67925548690400E+00
 cg2d: Sum(rhs),rhsMax =  -2.40142895790996E-07  8.68420665617491E+00
 cg2d: Sum(rhs),rhsMax =  -2.40006130525217E-07  8.68916145963729E+00
 cg2d: Sum(rhs),rhsMax =  -2.39869450524566E-07  8.69412491880011E+00
 cg2d: Sum(rhs),rhsMax =  -2.39731853923786E-07  8.69910175166197E+00
 cg2d: Sum(rhs),rhsMax =  -2.39594477591254E-07  8.70409625463335E+00
 cg2d: Sum(rhs),rhsMax =  -2.39456610984234E-07  8.70911224623719E+00
 cg2d: Sum(rhs),rhsMax =  -2.39318524108967E-07  8.71415300952969E+00
 cg2d: Sum(rhs),rhsMax =  -2.39179819061519E-07  8.71922107400600E+00
 cg2d: Sum(rhs),rhsMax =  -2.39039941618557E-07  8.72431810322763E+00
 cg2d: Sum(rhs),rhsMax =  -2.38899893645339E-07  8.72944491034874E+00
 cg2d: Sum(rhs),rhsMax =  -2.38758616433188E-07  8.73460150471141E+00
 cg2d: Sum(rhs),rhsMax =  -2.38616948422532E-07  8.73978715591014E+00
 cg2d: Sum(rhs),rhsMax =  -2.38474669345123E-07  8.74500048107581E+00
 cg2d: Sum(rhs),rhsMax =  -2.38332305002587E-07  8.75023954225340E+00
 cg2d: Sum(rhs),rhsMax =  -2.38189322487870E-07  8.75550195605016E+00
 cg2d: Sum(rhs),rhsMax =  -2.38046069966913E-07  8.76078500778492E+00
 cg2d: Sum(rhs),rhsMax =  -2.37902014532665E-07  8.76608574658582E+00
 cg2d: Sum(rhs),rhsMax =  -2.37757973309272E-07  8.77140108996162E+00
 cg2d: Sum(rhs),rhsMax =  -2.37613583919938E-07  8.77672791128606E+00
 cg2d: Sum(rhs),rhsMax =  -2.37469464536844E-07  8.78206311907848E+00
(PID.TID 0000.0001) Did not write pickup because writePickupAtEnd = FALSE
 cg2d: Sum(rhs),rhsMax =  -2.44783471714527E-07  8.51897418323859E+00
 cg2d: Sum(rhs),rhsMax =  -2.44957739425899E-07  8.51294224856493E+00
 cg2d: Sum(rhs),rhsMax =  -2.45131850817870E-07  8.50690564885983E+00
 cg2d: Sum(rhs),rhsMax =  -2.45306104318388E-07  8.50087010325378E+00
 cg2d: Sum(rhs),rhsMax =  -2.45480840987966E-07  8.49484030788981E+00
 cg2d: Sum(rhs),rhsMax =  -2.45655421338142E-07  8.48882091652209E+00
 cg2d: Sum(rhs),rhsMax =  -2.45829966161182E-07  8.48281648598470E+00
 cg2d: Sum(rhs),rhsMax =  -2.46003693860075E-07  8.47683141604414E+00
 cg2d: Sum(rhs),rhsMax =  -2.46177087603883E-07  8.47086986481543E+00
 cg2d: Sum(rhs),rhsMax =  -2.46350516874827E-07  8.46493565647207E+00
 EXTERNAL_FIELDS_LOAD, it=   3600570 : Reading new data, i0,i1=   10   11 (prev=    9    1 )
 DIC_FIELDS_LOAD, it=   3600570 : Reading new data, i0,i1=   10   11 (prev=    9   10 )
 cg2d: Sum(rhs),rhsMax =  -2.46522958491369E-07  8.45903217397129E+00
 cg2d: Sum(rhs),rhsMax =  -2.46693353744831E-07  8.45319776100662E+00
 cg2d: Sum(rhs),rhsMax =  -2.46861752373206E-07  8.44745780781015E+00
 cg2d: Sum(rhs),rhsMax =  -2.47026463284783E-07  8.44183689308228E+00
 cg2d: Sum(rhs),rhsMax =  -2.47187230684176E-07  8.43635808123200E+00
 cg2d: Sum(rhs),rhsMax =  -2.47343706405445E-07  8.43104233122613E+00
 cg2d: Sum(rhs),rhsMax =  -2.47495002270171E-07  8.42590806033104E+00
 cg2d: Sum(rhs),rhsMax =  -2.47640862482967E-07  8.42097079337588E+00
 cg2d: Sum(rhs),rhsMax =  -2.47780199913450E-07  8.41624287670950E+00
 cg2d: Sum(rhs),rhsMax =  -2.47913433781832E-07  8.41173327531019E+00
 cg2d: Sum(rhs),rhsMax =  -2.48040628036961E-07  8.40744751803125E+00
 cg2d: Sum(rhs),rhsMax =  -2.48160993976398E-07  8.40338776690083E+00
 cg2d: Sum(rhs),rhsMax =  -2.48274659497838E-07  8.39955295260282E+00
 cg2d: Sum(rhs),rhsMax =  -2.48382001188929E-07  8.39593904397255E+00
 cg2d: Sum(rhs),rhsMax =  -2.48483310372194E-07  8.39253935780259E+00
 cg2d: Sum(rhs),rhsMax =  -2.48578452044512E-07  8.38934486115791E+00
 cg2d: Sum(rhs),rhsMax =  -2.48667660684987E-07  8.38634455564178E+00
 cg2d: Sum(rhs),rhsMax =  -2.48751881315457E-07  8.38352593271183E+00
 cg2d: Sum(rhs),rhsMax =  -2.48830964721947E-07  8.38087545512510E+00
 cg2d: Sum(rhs),rhsMax =  -2.48905820399159E-07  8.37837910210342E+00
 cg2d: Sum(rhs),rhsMax =  -2.48976242289700E-07  8.37602295704436E+00
 cg2d: Sum(rhs),rhsMax =  -2.49042699351776E-07  8.37379380797618E+00
 cg2d: Sum(rhs),rhsMax =  -2.49106562932866E-07  8.37167959361354E+00
 cg2d: Sum(rhs),rhsMax =  -2.49166241417242E-07  8.36966926830838E+00
 cg2d: Sum(rhs),rhsMax =  -2.49223795378839E-07  8.36775333408158E+00
 cg2d: Sum(rhs),rhsMax =  -2.49279089814536E-07  8.36592380342866E+00
 cg2d: Sum(rhs),rhsMax =  -2.49331364443606E-07  8.36417416133343E+00
 cg2d: Sum(rhs),rhsMax =  -2.49381677974725E-07  8.36249928728285E+00
 cg2d: Sum(rhs),rhsMax =  -2.49429696452808E-07  8.36089538401903E+00
 cg2d: Sum(rhs),rhsMax =  -2.49476237002000E-07  8.35935991281295E+00
 cg2d: Sum(rhs),rhsMax =  -2.49520162753925E-07  8.35789146030961E+00
 cg2d: Sum(rhs),rhsMax =  -2.49562525311831E-07  8.35648964985200E+00
 cg2d: Sum(rhs),rhsMax =  -2.49602841506658E-07  8.35515513914879E+00
 cg2d: Sum(rhs),rhsMax =  -2.49640748961610E-07  8.35388971117527E+00
 cg2d: Sum(rhs),rhsMax =  -2.49676844532587E-07  8.35269628610801E+00
 cg2d: Sum(rhs),rhsMax =  -2.49710517152835E-07  8.35157887088272E+00
 cg2d: Sum(rhs),rhsMax =  -2.49741731295217E-07  8.35054250509572E+00
 cg2d: Sum(rhs),rhsMax =  -2.49770394589177E-07  8.34959323059716E+00
 cg2d: Sum(rhs),rhsMax =  -2.49796435980443E-07  8.34873810769870E+00
 cg2d: Sum(rhs),rhsMax =  -2.49819045450295E-07  8.34798512227025E+00
 cg2d: Sum(rhs),rhsMax =  -2.49838244315015E-07  8.34734290261435E+00
 cg2d: Sum(rhs),rhsMax =  -2.49853975731185E-07  8.34682030367283E+00
 cg2d: Sum(rhs),rhsMax =  -2.49866459967052E-07  8.34642602050246E+00
 cg2d: Sum(rhs),rhsMax =  -2.49874005930906E-07  8.34616833018179E+00
 cg2d: Sum(rhs),rhsMax =  -2.49877167846080E-07  8.34605492416921E+00
 cg2d: Sum(rhs),rhsMax =  -2.49876372038216E-07  8.34609271647880E+00
 cg2d: Sum(rhs),rhsMax =  -2.49870495849791E-07  8.34628766951383E+00
 cg2d: Sum(rhs),rhsMax =  -2.49859972711874E-07  8.34664465917166E+00
 cg2d: Sum(rhs),rhsMax =  -2.49844404720534E-07  8.34716735659488E+00
 cg2d: Sum(rhs),rhsMax =  -2.49823550291239E-07  8.34785810988885E+00
 cg2d: Sum(rhs),rhsMax =  -2.49798063123308E-07  8.34871787621402E+00
 cg2d: Sum(rhs),rhsMax =  -2.49766976878618E-07  8.34974617920463E+00
 cg2d: Sum(rhs),rhsMax =  -2.49731257895291E-07  8.35094113608330E+00
 cg2d: Sum(rhs),rhsMax =  -2.49690643272515E-07  8.35229948619608E+00
 cg2d: Sum(rhs),rhsMax =  -2.49645175642854E-07  8.35381675511217E+00
 cg2d: Sum(rhs),rhsMax =  -2.49595025536564E-07  8.35548736188202E+00
 cg2d: Sum(rhs),rhsMax =  -2.49540875074672E-07  8.35730476743729E+00
 cg2d: Sum(rhs),rhsMax =  -2.49482035030724E-07  8.35926164070414E+00
 cg2d: Sum(rhs),rhsMax =  -2.49419819908780E-07  8.36135002375845E+00
 cg2d: Sum(rhs),rhsMax =  -2.49353568904098E-07  8.36356151790629E+00
 EXTERNAL_FIELDS_LOAD, it=   3600630 : Reading new data, i0,i1=   11   12 (prev=   10   11 )
 DIC_FIELDS_LOAD, it=   3600630 : Reading new data, i0,i1=   11   12 (prev=   10   11 )
 cg2d: Sum(rhs),rhsMax =  -2.49283999664840E-07  8.36588746134833E+00
 cg2d: Sum(rhs),rhsMax =  -2.49212149583400E-07  8.36830171267966E+00
 cg2d: Sum(rhs),rhsMax =  -2.49137990238069E-07  8.37078382670868E+00
 cg2d: Sum(rhs),rhsMax =  -2.49062694024360E-07  8.37331347128018E+00
 cg2d: Sum(rhs),rhsMax =  -2.48986417261676E-07  8.37587083487809E+00
 cg2d: Sum(rhs),rhsMax =  -2.48910055233864E-07  8.37843890797547E+00
 cg2d: Sum(rhs),rhsMax =  -2.48833615046351E-07  8.38100282447941E+00
 cg2d: Sum(rhs),rhsMax =  -2.48757785925591E-07  8.38355008718710E+00
 cg2d: Sum(rhs),rhsMax =  -2.48682930248378E-07  8.38607101327765E+00
 cg2d: Sum(rhs),rhsMax =  -2.48608408526252E-07  8.38855886249661E+00
 cg2d: Sum(rhs),rhsMax =  -2.48536004221478E-07  8.39100987040112E+00
 cg2d: Sum(rhs),rhsMax =  -2.48464210983457E-07  8.39342320470582E+00
 cg2d: Sum(rhs),rhsMax =  -2.48393547508385E-07  8.39580086228628E+00
 cg2d: Sum(rhs),rhsMax =  -2.48323665630323E-07  8.39814747768731E+00
 cg2d: Sum(rhs),rhsMax =  -2.48254892198929E-07  8.40047003473604E+00
 cg2d: Sum(rhs),rhsMax =  -2.48186310614074E-07  8.40277751423481E+00
 cg2d: Sum(rhs),rhsMax =  -2.48117892454047E-07  8.40508048455822E+00
 cg2d: Sum(rhs),rhsMax =  -2.48049687456842E-07  8.40739063604165E+00
 cg2d: Sum(rhs),rhsMax =  -2.47980871392883E-07  8.40972032300375E+00
 cg2d: Sum(rhs),rhsMax =  -2.47910648454308E-07  8.41208213189281E+00
 cg2d: Sum(rhs),rhsMax =  -2.47839537337313E-07  8.41448816606350E+00
 cg2d: Sum(rhs),rhsMax =  -2.47766863026300E-07  8.41694970128980E+00
 cg2d: Sum(rhs),rhsMax =  -2.47691964716523E-07  8.41947813091076E+00
 cg2d: Sum(rhs),rhsMax =  -2.47614714510291E-07  8.42209648974696E+00
 cg2d: Sum(rhs),rhsMax =  -2.47534813979655E-07  8.42482035527151E+00
 cg2d: Sum(rhs),rhsMax =  -2.47451126256237E-07  8.42766351995909E+00
 cg2d: Sum(rhs),rhsMax =  -2.47363992400551E-07  8.43063783312212E+00
 cg2d: Sum(rhs),rhsMax =  -2.47272517128749E-07  8.43375283121391E+00
 cg2d: Sum(rhs),rhsMax =  -2.47176934919935E-07  8.43701559654336E+00
 cg2d: Sum(rhs),rhsMax =  -2.47076883397312E-07  8.44043066353450E+00
 cg2d: Sum(rhs),rhsMax =  -2.46972234663190E-07  8.44400002260639E+00
 cg2d: Sum(rhs),rhsMax =  -2.46863251618379E-07  8.44772316054511E+00
 cg2d: Sum(rhs),rhsMax =  -2.46750062160572E-07  8.45159719138741E+00
 cg2d: Sum(rhs),rhsMax =  -2.46632367861821E-07  8.45561701011588E+00
 cg2d: Sum(rhs),rhsMax =  -2.46511149271100E-07  8.45977551282957E+00
 cg2d: Sum(rhs),rhsMax =  -2.46386285596145E-07  8.46406373659226E+00
 cg2d: Sum(rhs),rhsMax =  -2.46257769731528E-07  8.46847122879392E+00
 cg2d: Sum(rhs),rhsMax =  -2.46126411695968E-07  8.47298635145432E+00
 cg2d: Sum(rhs),rhsMax =  -2.45992481495705E-07  8.47759653567383E+00
 cg2d: Sum(rhs),rhsMax =  -2.45856256242405E-07  8.48228855871733E+00
 cg2d: Sum(rhs),rhsMax =  -2.45718460689659E-07  8.48704884333580E+00
 cg2d: Sum(rhs),rhsMax =  -2.45578725355244E-07  8.49186380279765E+00
 cg2d: Sum(rhs),rhsMax =  -2.45438343426940E-07  8.49672023122521E+00
 cg2d: Sum(rhs),rhsMax =  -2.45297442802439E-07  8.50160566769727E+00
 cg2d: Sum(rhs),rhsMax =  -2.45155710842937E-07  8.50650876168224E+00
 cg2d: Sum(rhs),rhsMax =  -2.45014355471085E-07  8.51141938832254E+00
 cg2d: Sum(rhs),rhsMax =  -2.44872978782951E-07  8.51632882603140E+00
 cg2d: Sum(rhs),rhsMax =  -2.44732156318150E-07  8.52122992574505E+00
 cg2d: Sum(rhs),rhsMax =  -2.44592122555787E-07  8.52611725421215E+00
 cg2d: Sum(rhs),rhsMax =  -2.44452138531415E-07  8.53098720300080E+00
 cg2d: Sum(rhs),rhsMax =  -2.44313056896317E-07  8.53583804386303E+00
 cg2d: Sum(rhs),rhsMax =  -2.44175289765280E-07  8.54066993807463E+00
 cg2d: Sum(rhs),rhsMax =  -2.44037558161381E-07  8.54548489389639E+00
 cg2d: Sum(rhs),rhsMax =  -2.43900487362225E-07  8.55028665503631E+00
 cg2d: Sum(rhs),rhsMax =  -2.43763828677857E-07  8.55508055409759E+00
 cg2d: Sum(rhs),rhsMax =  -2.43627631846266E-07  8.55987334584090E+00
 cg2d: Sum(rhs),rhsMax =  -2.43490916318478E-07  8.56467304589797E+00
 cg2d: Sum(rhs),rhsMax =  -2.43354129736417E-07  8.56948875081293E+00
 cg2d: Sum(rhs),rhsMax =  -2.43216923934142E-07  8.57433041210705E+00
 cg2d: Sum(rhs),rhsMax =  -2.43078602579772E-07  8.57920857075689E+00
 EXTERNAL_FIELDS_LOAD, it=   3600690 : Reading new data, i0,i1=   12    1 (prev=   11   12 )
 DIC_FIELDS_LOAD, it=   3600690 : Reading new data, i0,i1=   12    1 (prev=   11   12 )
 cg2d: Sum(rhs),rhsMax =  -2.42939044881041E-07  8.58413406052202E+00
 cg2d: Sum(rhs),rhsMax =  -2.42799337968336E-07  8.58909115986565E+00
 cg2d: Sum(rhs),rhsMax =  -2.42658693139219E-07  8.59407439112439E+00
 cg2d: Sum(rhs),rhsMax =  -2.42517621984462E-07  8.59907838916988E+00
 cg2d: Sum(rhs),rhsMax =  -2.42376209769191E-07  8.60409812483420E+00
 cg2d: Sum(rhs),rhsMax =  -2.42234591496526E-07  8.60912903142987E+00
 cg2d: Sum(rhs),rhsMax =  -2.42093065594418E-07  8.61416710086381E+00
 cg2d: Sum(rhs),rhsMax =  -2.41951582324873E-07  8.61920891727868E+00
 cg2d: Sum(rhs),rhsMax =  -2.41810418799560E-07  8.62425159962176E+00
 cg2d: Sum(rhs),rhsMax =  -2.41669411593648E-07  8.62929265748306E+00
 cg2d: Sum(rhs),rhsMax =  -2.41528212541198E-07  8.63432985252268E+00
 cg2d: Sum(rhs),rhsMax =  -2.41388200095116E-07  8.63936110467875E+00
 cg2d: Sum(rhs),rhsMax =  -2.41247725796256E-07  8.64438452071694E+00
 cg2d: Sum(rhs),rhsMax =  -2.41107890985859E-07  8.64939845502298E+00
 cg2d: Sum(rhs),rhsMax =  -2.40969008302727E-07  8.65440163740473E+00
 cg2d: Sum(rhs),rhsMax =  -2.40829955089339E-07  8.65939341167613E+00
 cg2d: Sum(rhs),rhsMax =  -2.40691825581507E-07  8.66437380926046E+00
 cg2d: Sum(rhs),rhsMax =  -2.40553994501624E-07  8.66934351194661E+00
 cg2d: Sum(rhs),rhsMax =  -2.40416618169093E-07  8.67430280369745E+00
 cg2d: Sum(rhs),rhsMax =  -2.40279604213356E-07  8.67925548690400E+00
 cg2d: Sum(rhs),rhsMax =  -2.40142895790996E-07  8.68420665617491E+00
 cg2d: Sum(rhs),rhsMax =  -2.40006130525217E-07  8.68916145963729E+00
 cg2d: Sum(rhs),rhsMax =  -2.39869450524566E-07  8.69412491880011E+00
 cg2d: Sum(rhs),rhsMax =  -2.39731853923786E-07  8.69910175166197E+00
 cg2d: Sum(rhs),rhsMax =  -2.39594477591254E-07  8.70409625463335E+00
 cg2d: Sum(rhs),rhsMax =  -2.39456610984234E-07  8.70911224623719E+00
 cg2d: Sum(rhs),rhsMax =  -2.39318524108967E-07  8.71415300952969E+00
 cg2d: Sum(rhs),rhsMax =  -2.39179819061519E-07  8.71922107400600E+00
 cg2d: Sum(rhs),rhsMax =  -2.39039941618557E-07  8.72431810322763E+00
 cg2d: Sum(rhs),rhsMax =  -2.38899893645339E-07  8.72944491034874E+00
 cg2d: Sum(rhs),rhsMax =  -2.38758616433188E-07  8.73460150471141E+00
 cg2d: Sum(rhs),rhsMax =  -2.38616948422532E-07  8.73978715591014E+00
 cg2d: Sum(rhs),rhsMax =  -2.38474669345123E-07  8.74500048107581E+00
 cg2d: Sum(rhs),rhsMax =  -2.38332305002587E-07  8.75023954225340E+00
 cg2d: Sum(rhs),rhsMax =  -2.38189322487870E-07  8.75550195605016E+00
 cg2d: Sum(rhs),rhsMax =  -2.38046069966913E-07  8.76078500778492E+00
 cg2d: Sum(rhs),rhsMax =  -2.37902014532665E-07  8.76608574658582E+00
 cg2d: Sum(rhs),rhsMax =  -2.37757973309272E-07  8.77140108996162E+00
 cg2d: Sum(rhs),rhsMax =  -2.37613583919938E-07  8.77672791128606E+00
 cg2d: Sum(rhs),rhsMax =  -2.37469464536844E-07  8.78206311907848E+00
(PID.TID 0000.0001) Did not write pickup because writePickupAtEnd = FALSE
 cg2d: Sum(rhs),rhsMax =  -2.44783471714527E-07  8.51897418323859E+00
 cg2d: Sum(rhs),rhsMax =  -2.44957739425899E-07  8.51294224856493E+00
 cg2d: Sum(rhs),rhsMax =  -2.45131850817870E-07  8.50690564885983E+00
 cg2d: Sum(rhs),rhsMax =  -2.45306104318388E-07  8.50087010325378E+00
 cg2d: Sum(rhs),rhsMax =  -2.45480840987966E-07  8.49484030788981E+00
 cg2d: Sum(rhs),rhsMax =  -2.45655421338142E-07  8.48882091652209E+00
 cg2d: Sum(rhs),rhsMax =  -2.45829966161182E-07  8.48281648598470E+00
 cg2d: Sum(rhs),rhsMax =  -2.46003693860075E-07  8.47683141604414E+00
 cg2d: Sum(rhs),rhsMax =  -2.46177087603883E-07  8.47086986481543E+00
 cg2d: Sum(rhs),rhsMax =  -2.46350516874827E-07  8.46493565647207E+00
 EXTERNAL_FIELDS_LOAD, it=   3600570 : Reading new data, i0,i1=   10   11 (prev=    9    1 )
 DIC_FIELDS_LOAD, it=   3600570 : Reading new data, i0,i1=   10   11 (prev=    9   10 )
 cg2d: Sum(rhs),rhsMax =  -2.46522958491369E-07  8.45903217397129E+00
 cg2d: Sum(rhs),rhsMax =  -2.46693353744831E-07  8.45319776100662E+00
 cg2d: Sum(rhs),rhsMax =  -2.46861752373206E-07  8.44745780781015E+00
 cg2d: Sum(rhs),rhsMax =  -2.47026463284783E-07  8.44183689308228E+00
 cg2d: Sum(rhs),rhsMax =  -2.47187230684176E-07  8.43635808123200E+00
 cg2d: Sum(rhs),rhsMax =  -2.47343706405445E-07  8.43104233122613E+00
 cg2d: Sum(rhs),rhsMax =  -2.47495002270171E-07  8.42590806033104E+00
 cg2d: Sum(rhs),rhsMax =  -2.47640862482967E-07  8.42097079337588E+00
 cg2d: Sum(rhs),rhsMax =  -2.47780199913450E-07  8.41624287670950E+00
 cg2d: Sum(rhs),rhsMax =  -2.47913433781832E-07  8.41173327531019E+00
 cg2d: Sum(rhs),rhsMax =  -2.48040628036961E-07  8.40744751803125E+00
 cg2d: Sum(rhs),rhsMax =  -2.48160993976398E-07  8.40338776690083E+00
 cg2d: Sum(rhs),rhsMax =  -2.48274659497838E-07  8.39955295260282E+00
 cg2d: Sum(rhs),rhsMax =  -2.48382001188929E-07  8.39593904397255E+00
 cg2d: Sum(rhs),rhsMax =  -2.48483310372194E-07  8.39253935780259E+00
 cg2d: Sum(rhs),rhsMax =  -2.48578452044512E-07  8.38934486115791E+00
 cg2d: Sum(rhs),rhsMax =  -2.48667660684987E-07  8.38634455564178E+00
 cg2d: Sum(rhs),rhsMax =  -2.48751881315457E-07  8.38352593271183E+00
 cg2d: Sum(rhs),rhsMax =  -2.48830964721947E-07  8.38087545512510E+00
 cg2d: Sum(rhs),rhsMax =  -2.48905820399159E-07  8.37837910210342E+00
 cg2d: Sum(rhs),rhsMax =  -2.48976242289700E-07  8.37602295704436E+00
 cg2d: Sum(rhs),rhsMax =  -2.49042699351776E-07  8.37379380797618E+00
 cg2d: Sum(rhs),rhsMax =  -2.49106562932866E-07  8.37167959361354E+00
 cg2d: Sum(rhs),rhsMax =  -2.49166241417242E-07  8.36966926830838E+00
 cg2d: Sum(rhs),rhsMax =  -2.49223795378839E-07  8.36775333408158E+00
 cg2d: Sum(rhs),rhsMax =  -2.49279089814536E-07  8.36592380342866E+00
 cg2d: Sum(rhs),rhsMax =  -2.49331364443606E-07  8.36417416133343E+00
 cg2d: Sum(rhs),rhsMax =  -2.49381677974725E-07  8.36249928728285E+00
 cg2d: Sum(rhs),rhsMax =  -2.49429696452808E-07  8.36089538401903E+00
 cg2d: Sum(rhs),rhsMax =  -2.49476237002000E-07  8.35935991281295E+00
 cg2d: Sum(rhs),rhsMax =  -2.49520162753925E-07  8.35789146030961E+00
 cg2d: Sum(rhs),rhsMax =  -2.49562525311831E-07  8.35648964985200E+00
 cg2d: Sum(rhs),rhsMax =  -2.49602841506658E-07  8.35515513914879E+00
 cg2d: Sum(rhs),rhsMax =  -2.49640748961610E-07  8.35388971117527E+00
 cg2d: Sum(rhs),rhsMax =  -2.49676844532587E-07  8.35269628610801E+00
 cg2d: Sum(rhs),rhsMax =  -2.49710517152835E-07  8.35157887088272E+00
 cg2d: Sum(rhs),rhsMax =  -2.49741731295217E-07  8.35054250509572E+00
 cg2d: Sum(rhs),rhsMax =  -2.49770394589177E-07  8.34959323059716E+00
 cg2d: Sum(rhs),rhsMax =  -2.49796435980443E-07  8.34873810769870E+00
 cg2d: Sum(rhs),rhsMax =  -2.49819045450295E-07  8.34798512227025E+00
 cg2d: Sum(rhs),rhsMax =  -2.49838244315015E-07  8.34734290261435E+00
 cg2d: Sum(rhs),rhsMax =  -2.49853975731185E-07  8.34682030367283E+00
 cg2d: Sum(rhs),rhsMax =  -2.49866459967052E-07  8.34642602050246E+00
 cg2d: Sum(rhs),rhsMax =  -2.49874005930906E-07  8.34616833018179E+00
 cg2d: Sum(rhs),rhsMax =  -2.49877167846080E-07  8.34605492416921E+00
 cg2d: Sum(rhs),rhsMax =  -2.49876372038216E-07  8.34609271647880E+00
 cg2d: Sum(rhs),rhsMax =  -2.49870495849791E-07  8.34628766951383E+00
 cg2d: Sum(rhs),rhsMax =  -2.49859972711874E-07  8.34664465917166E+00
 cg2d: Sum(rhs),rhsMax =  -2.49844404720534E-07  8.34716735659488E+00
 cg2d: Sum(rhs),rhsMax =  -2.49823550291239E-07  8.34785810988885E+00
 cg2d: Sum(rhs),rhsMax =  -2.49798063123308E-07  8.34871787621402E+00
 cg2d: Sum(rhs),rhsMax =  -2.49766976878618E-07  8.34974617920463E+00
 cg2d: Sum(rhs),rhsMax =  -2.49731257895291E-07  8.35094113608330E+00
 cg2d: Sum(rhs),rhsMax =  -2.49690643272515E-07  8.35229948619608E+00
 cg2d: Sum(rhs),rhsMax =  -2.49645175642854E-07  8.35381675511217E+00
 cg2d: Sum(rhs),rhsMax =  -2.49595025536564E-07  8.35548736188202E+00
 cg2d: Sum(rhs),rhsMax =  -2.49540875074672E-07  8.35730476743729E+00
 cg2d: Sum(rhs),rhsMax =  -2.49482035030724E-07  8.35926164070414E+00
 cg2d: Sum(rhs),rhsMax =  -2.49419819908780E-07  8.36135002375845E+00
 cg2d: Sum(rhs),rhsMax =  -2.49353568904098E-07  8.36356151790629E+00
 EXTERNAL_FIELDS_LOAD, it=   3600630 : Reading new data, i0,i1=   11   12 (prev=   10   11 )
 DIC_FIELDS_LOAD, it=   3600630 : Reading new data, i0,i1=   11   12 (prev=   10   11 )
 cg2d: Sum(rhs),rhsMax =  -2.49283999664840E-07  8.36588746134833E+00
 cg2d: Sum(rhs),rhsMax =  -2.49212149583400E-07  8.36830171267966E+00
 cg2d: Sum(rhs),rhsMax =  -2.49137990238069E-07  8.37078382670868E+00
 cg2d: Sum(rhs),rhsMax =  -2.49062694024360E-07  8.37331347128018E+00
 cg2d: Sum(rhs),rhsMax =  -2.48986417261676E-07  8.37587083487809E+00
 cg2d: Sum(rhs),rhsMax =  -2.48910055233864E-07  8.37843890797547E+00
 cg2d: Sum(rhs),rhsMax =  -2.48833615046351E-07  8.38100282447941E+00
 cg2d: Sum(rhs),rhsMax =  -2.48757785925591E-07  8.38355008718710E+00
 cg2d: Sum(rhs),rhsMax =  -2.48682930248378E-07  8.38607101327765E+00
 cg2d: Sum(rhs),rhsMax =  -2.48608408526252E-07  8.38855886249661E+00
 cg2d: Sum(rhs),rhsMax =  -2.48536004221478E-07  8.39100987040112E+00
 cg2d: Sum(rhs),rhsMax =  -2.48464210983457E-07  8.39342320470582E+00
 cg2d: Sum(rhs),rhsMax =  -2.48393547508385E-07  8.39580086228628E+00
 cg2d: Sum(rhs),rhsMax =  -2.48323665630323E-07  8.39814747768731E+00
 cg2d: Sum(rhs),rhsMax =  -2.48254892198929E-07  8.40047003473604E+00
 cg2d: Sum(rhs),rhsMax =  -2.48186310614074E-07  8.40277751423481E+00
 cg2d: Sum(rhs),rhsMax =  -2.48117892454047E-07  8.40508048455822E+00
 cg2d: Sum(rhs),rhsMax =  -2.48049687456842E-07  8.40739063604165E+00
 cg2d: Sum(rhs),rhsMax =  -2.47980871392883E-07  8.40972032300375E+00
 cg2d: Sum(rhs),rhsMax =  -2.47910648454308E-07  8.41208213189281E+00
 cg2d: Sum(rhs),rhsMax =  -2.47839537337313E-07  8.41448816606350E+00
 cg2d: Sum(rhs),rhsMax =  -2.47766863026300E-07  8.41694970128980E+00
 cg2d: Sum(rhs),rhsMax =  -2.47691964716523E-07  8.41947813091076E+00
 cg2d: Sum(rhs),rhsMax =  -2.47614714510291E-07  8.42209648974696E+00
 cg2d: Sum(rhs),rhsMax =  -2.47534813979655E-07  8.42482035527151E+00
 cg2d: Sum(rhs),rhsMax =  -2.47451126256237E-07  8.42766351995909E+00
 cg2d: Sum(rhs),rhsMax =  -2.47363992400551E-07  8.43063783312212E+00
 cg2d: Sum(rhs),rhsMax =  -2.47272517128749E-07  8.43375283121391E+00
 cg2d: Sum(rhs),rhsMax =  -2.47176934919935E-07  8.43701559654336E+00
 cg2d: Sum(rhs),rhsMax =  -2.47076883397312E-07  8.44043066353450E+00
 cg2d: Sum(rhs),rhsMax =  -2.46972234663190E-07  8.44400002260639E+00
 cg2d: Sum(rhs),rhsMax =  -2.46863251618379E-07  8.44772316054511E+00
 cg2d: Sum(rhs),rhsMax =  -2.46750062160572E-07  8.45159719138741E+00
 cg2d: Sum(rhs),rhsMax =  -2.46632367861821E-07  8.45561701011588E+00
 cg2d: Sum(rhs),rhsMax =  -2.46511149271100E-07  8.45977551282957E+00
 cg2d: Sum(rhs),rhsMax =  -2.46386285596145E-07  8.46406373659226E+00
 cg2d: Sum(rhs),rhsMax =  -2.46257769731528E-07  8.46847122879392E+00
 cg2d: Sum(rhs),rhsMax =  -2.46126411695968E-07  8.47298635145432E+00
 cg2d: Sum(rhs),rhsMax =  -2.45992481495705E-07  8.47759653567383E+00
 cg2d: Sum(rhs),rhsMax =  -2.45856256242405E-07  8.48228855871733E+00
 cg2d: Sum(rhs),rhsMax =  -2.45718460689659E-07  8.48704884333580E+00
 cg2d: Sum(rhs),rhsMax =  -2.45578725355244E-07  8.49186380279765E+00
 cg2d: Sum(rhs),rhsMax =  -2.45438343426940E-07  8.49672023122521E+00
 cg2d: Sum(rhs),rhsMax =  -2.45297442802439E-07  8.50160566769727E+00
 cg2d: Sum(rhs),rhsMax =  -2.45155710842937E-07  8.50650876168224E+00
 cg2d: Sum(rhs),rhsMax =  -2.45014355471085E-07  8.51141938832254E+00
 cg2d: Sum(rhs),rhsMax =  -2.44872978782951E-07  8.51632882603140E+00
 cg2d: Sum(rhs),rhsMax =  -2.44732156318150E-07  8.52122992574505E+00
 cg2d: Sum(rhs),rhsMax =  -2.44592122555787E-07  8.52611725421215E+00
 cg2d: Sum(rhs),rhsMax =  -2.44452138531415E-07  8.53098720300080E+00
 cg2d: Sum(rhs),rhsMax =  -2.44313056896317E-07  8.53583804386303E+00
 cg2d: Sum(rhs),rhsMax =  -2.44175289765280E-07  8.54066993807463E+00
 cg2d: Sum(rhs),rhsMax =  -2.44037558161381E-07  8.54548489389639E+00
 cg2d: Sum(rhs),rhsMax =  -2.43900487362225E-07  8.55028665503631E+00
 cg2d: Sum(rhs),rhsMax =  -2.43763828677857E-07  8.55508055409759E+00
 cg2d: Sum(rhs),rhsMax =  -2.43627631846266E-07  8.55987334584090E+00
 cg2d: Sum(rhs),rhsMax =  -2.43490916318478E-07  8.56467304589797E+00
 cg2d: Sum(rhs),rhsMax =  -2.43354129736417E-07  8.56948875081293E+00
 cg2d: Sum(rhs),rhsMax =  -2.43216923934142E-07  8.57433041210705E+00
 cg2d: Sum(rhs),rhsMax =  -2.43078602579772E-07  8.57920857075689E+00
 EXTERNAL_FIELDS_LOAD, it=   3600690 : Reading new data, i0,i1=   12    1 (prev=   11   12 )
 DIC_FIELDS_LOAD, it=   3600690 : Reading new data, i0,i1=   12    1 (prev=   11   12 )
 cg2d: Sum(rhs),rhsMax =  -2.42939044881041E-07  8.58413406052202E+00
 cg2d: Sum(rhs),rhsMax =  -2.42799337968336E-07  8.58909115986565E+00
 cg2d: Sum(rhs),rhsMax =  -2.42658693139219E-07  8.59407439112439E+00
 cg2d: Sum(rhs),rhsMax =  -2.42517621984462E-07  8.59907838916988E+00
 cg2d: Sum(rhs),rhsMax =  -2.42376209769191E-07  8.60409812483420E+00
 cg2d: Sum(rhs),rhsMax =  -2.42234591496526E-07  8.60912903142987E+00
 cg2d: Sum(rhs),rhsMax =  -2.42093065594418E-07  8.61416710086381E+00
 cg2d: Sum(rhs),rhsMax =  -2.41951582324873E-07  8.61920891727868E+00
 cg2d: Sum(rhs),rhsMax =  -2.41810418799560E-07  8.62425159962176E+00
 cg2d: Sum(rhs),rhsMax =  -2.41669411593648E-07  8.62929265748306E+00
 cg2d: Sum(rhs),rhsMax =  -2.41528212541198E-07  8.63432985252268E+00
 cg2d: Sum(rhs),rhsMax =  -2.41388200095116E-07  8.63936110467875E+00
 cg2d: Sum(rhs),rhsMax =  -2.41247725796256E-07  8.64438452071694E+00
 cg2d: Sum(rhs),rhsMax =  -2.41107890985859E-07  8.64939845502298E+00
 cg2d: Sum(rhs),rhsMax =  -2.40969008302727E-07  8.65440163740473E+00
 cg2d: Sum(rhs),rhsMax =  -2.40829955089339E-07  8.65939341167613E+00
 cg2d: Sum(rhs),rhsMax =  -2.40691825581507E-07  8.66437380926046E+00
 cg2d: Sum(rhs),rhsMax =  -2.40553994501624E-07  8.66934351194661E+00
 cg2d: Sum(rhs),rhsMax =  -2.40416618169093E-07  8.67430280369745E+00
 cg2d: Sum(rhs),rhsMax =  -2.40279604213356E-07  8.67925548690400E+00
 cg2d: Sum(rhs),rhsMax =  -2.40142895790996E-07  8.68420665617491E+00
 cg2d: Sum(rhs),rhsMax =  -2.40006130525217E-07  8.68916145963729E+00
 cg2d: Sum(rhs),rhsMax =  -2.39869450524566E-07  8.69412491880011E+00
 cg2d: Sum(rhs),rhsMax =  -2.39731853923786E-07  8.69910175166197E+00
 cg2d: Sum(rhs),rhsMax =  -2.39594477591254E-07  8.70409625463335E+00
 cg2d: Sum(rhs),rhsMax =  -2.39456610984234E-07  8.70911224623719E+00
 cg2d: Sum(rhs),rhsMax =  -2.39318524108967E-07  8.71415300952969E+00
 cg2d: Sum(rhs),rhsMax =  -2.39179819061519E-07  8.71922107400600E+00
 cg2d: Sum(rhs),rhsMax =  -2.39039941618557E-07  8.72431810322763E+00
 cg2d: Sum(rhs),rhsMax =  -2.38899893645339E-07  8.72944491034874E+00
 cg2d: Sum(rhs),rhsMax =  -5.83710352941580E-07  8.73460151758486E+00
 cg2d: Sum(rhs),rhsMax =  -5.83363998885034E-07  8.73978716602284E+00
 cg2d: Sum(rhs),rhsMax =  -5.83016493749255E-07  8.74500048409303E+00
 cg2d: Sum(rhs),rhsMax =  -5.82667425419459E-07  8.75023952750562E+00
 cg2d: Sum(rhs),rhsMax =  -5.82317760233764E-07  8.75550190762887E+00
 cg2d: Sum(rhs),rhsMax =  -5.81966325796657E-07  8.76078490953528E+00
 cg2d: Sum(rhs),rhsMax =  -5.81614607142455E-07  8.76608558771449E+00
 cg2d: Sum(rhs),rhsMax =  -5.81262320054066E-07  8.77140086730979E+00
 cg2d: Sum(rhs),rhsMax =  -5.80909642167171E-07  8.77672762783728E+00
 cg2d: Sum(rhs),rhsMax =  -5.80557092177969E-07  8.78206278051790E+00
(PID.TID 0000.0001) Did not write pickup because writePickupAtEnd = FALSE
 cg2d: Sum(rhs),rhsMax =  -5.83710352941580E-07  8.73460151758486E+00
 cg2d: Sum(rhs),rhsMax =  -5.83363998885034E-07  8.73978716602284E+00
 cg2d: Sum(rhs),rhsMax =  -5.83016493749255E-07  8.74500048409303E+00
 cg2d: Sum(rhs),rhsMax =  -5.82667425419459E-07  8.75023952750562E+00
 cg2d: Sum(rhs),rhsMax =  -5.82317760233764E-07  8.75550190762887E+00
 cg2d: Sum(rhs),rhsMax =  -5.81966325796657E-07  8.76078490953528E+00
 cg2d: Sum(rhs),rhsMax =  -5.81614607142455E-07  8.76608558771449E+00
 cg2d: Sum(rhs),rhsMax =  -5.81262320054066E-07  8.77140086730979E+00
 cg2d: Sum(rhs),rhsMax =  -5.80909642167171E-07  8.77672762783728E+00
 cg2d: Sum(rhs),rhsMax =  -9.60993240539665E-07  8.78206279922205E+00
(PID.TID 0000.0001) Did not write pickup because writePickupAtEnd = FALSE
 cg2d: Sum(rhs),rhsMax =   7.63278329429795E-17  7.21873782719838E-05
 cg2d: Sum(rhs),rhsMax =  -5.83710352941580E-07  8.73460151758486E+00
 cg2d: Sum(rhs),rhsMax =  -5.83363998885034E-07  8.73978716602284E+00
 cg2d: Sum(rhs),rhsMax =  -5.83016493749255E-07  8.74500048409303E+00
 cg2d: Sum(rhs),rhsMax =  -5.82667425419459E-07  8.75023952750562E+00
 cg2d: Sum(rhs),rhsMax =  -5.82317760233764E-07  8.75550190762887E+00
 cg2d: Sum(rhs),rhsMax =  -5.81966325796657E-07  8.76078490953528E+00
 cg2d: Sum(rhs),rhsMax =  -5.81614607142455E-07  8.76608558771449E+00
 cg2d: Sum(rhs),rhsMax =  -5.81262320054066E-07  8.77140086730979E+00
 cg2d: Sum(rhs),rhsMax =   8.17295187971467E-07  8.77672779903850E+00
 cg2d: Sum(rhs),rhsMax =  -5.93049070610920E-14  1.97021590307986E-04
 cg2d: Sum(rhs),rhsMax =  -5.83710352941580E-07  8.73460151758486E+00
 cg2d: Sum(rhs),rhsMax =  -5.83363998885034E-07  8.73978716602284E+00
 cg2d: Sum(rhs),rhsMax =  -5.83016493749255E-07  8.74500048409303E+00
 cg2d: Sum(rhs),rhsMax =  -5.82667425419459E-07  8.75023952750562E+00
 cg2d: Sum(rhs),rhsMax =  -5.82317760233764E-07  8.75550190762887E+00
 cg2d: Sum(rhs),rhsMax =  -5.81966325796657E-07  8.76078490953528E+00
 cg2d: Sum(rhs),rhsMax =  -5.81614607142455E-07  8.76608558771449E+00
 cg2d: Sum(rhs),rhsMax =  -9.43945465792240E-07  8.77140083677204E+00
 cg2d: Sum(rhs),rhsMax =  -2.09162758880115E-13  3.34211189621620E-04
 cg2d: Sum(rhs),rhsMax =  -5.83710352941580E-07  8.73460151758486E+00
 cg2d: Sum(rhs),rhsMax =  -5.83363998885034E-07  8.73978716602284E+00
 cg2d: Sum(rhs),rhsMax =  -5.83016493749255E-07  8.74500048409303E+00
 cg2d: Sum(rhs),rhsMax =  -5.82667425419459E-07  8.75023952750562E+00
 cg2d: Sum(rhs),rhsMax =  -5.82317760233764E-07  8.75550190762887E+00
 cg2d: Sum(rhs),rhsMax =  -5.81966325796657E-07  8.76078490953528E+00
 cg2d: Sum(rhs),rhsMax =   1.66097861153958E-06  8.76608578153616E+00
 cg2d: Sum(rhs),rhsMax =  -2.83236557952870E-13  4.60177976545144E-04
 cg2d: Sum(rhs),rhsMax =  -5.83710352941580E-07  8.73460151758486E+00
 cg2d: Sum(rhs),rhsMax =  -5.83363998885034E-07  8.73978716602284E+00
 cg2d: Sum(rhs),rhsMax =  -5.83016493749255E-07  8.74500048409303E+00
 cg2d: Sum(rhs),rhsMax =  -5.82667425419459E-07  8.75023952750562E+00
 cg2d: Sum(rhs),rhsMax =  -5.82317760233764E-07  8.75550190762887E+00
 cg2d: Sum(rhs),rhsMax =  -1.28582158964718E-06  8.76078504949496E+00
 cg2d: Sum(rhs),rhsMax =  -2.48802165664624E-13  5.70384235639431E-04
 cg2d: Sum(rhs),rhsMax =  -5.83710352941580E-07  8.73460151758486E+00
 cg2d: Sum(rhs),rhsMax =  -5.83363998885034E-07  8.73978716602284E+00
 cg2d: Sum(rhs),rhsMax =  -5.83016493749255E-07  8.74500048409303E+00
 cg2d: Sum(rhs),rhsMax =  -5.82667425419459E-07  8.75023952750562E+00
 cg2d: Sum(rhs),rhsMax =  -8.02981396930136E-07  8.75550192080101E+00
(PID.TID 0000.0001) // =======================================================
(PID.TID 0000.0001) // Begin AD_MONITOR dynamic field statistics
(PID.TID 0000.0001) // =======================================================
(PID.TID 0000.0001) %MON ad_time_tsnumber             =               3600725
(PID.TID 0000.0001) %MON ad_time_secondsf             =   1.5555132000000E+11
(PID.TID 0000.0001) %MON ad_dynstat_adeta_max         =   3.4063091267427E+01
(PID.TID 0000.0001) %MON ad_dynstat_adeta_min         =  -4.7784490498751E+01
(PID.TID 0000.0001) %MON ad_dynstat_adeta_mean        =  -2.0116364794967E-02
(PID.TID 0000.0001) %MON ad_dynstat_adeta_sd          =   4.9871567746637E+00
(PID.TID 0000.0001) %MON ad_dynstat_adeta_del2        =   1.2758494595438E-01
(PID.TID 0000.0001) %MON ad_dynstat_aduvel_max        =   1.3659058688297E+02
(PID.TID 0000.0001) %MON ad_dynstat_aduvel_min        =  -3.5939231775122E+01
(PID.TID 0000.0001) %MON ad_dynstat_aduvel_mean       =   1.4637414477414E+00
(PID.TID 0000.0001) %MON ad_dynstat_aduvel_sd         =   9.0643532800475E+00
(PID.TID 0000.0001) %MON ad_dynstat_aduvel_del2       =   2.0481225626580E-02
(PID.TID 0000.0001) %MON ad_dynstat_advvel_max        =   1.4679002352921E+02
(PID.TID 0000.0001) %MON ad_dynstat_advvel_min        =  -1.4682647070588E+02
(PID.TID 0000.0001) %MON ad_dynstat_advvel_mean       =   9.3052945443878E-01
(PID.TID 0000.0001) %MON ad_dynstat_advvel_sd         =   1.1341858120628E+01
(PID.TID 0000.0001) %MON ad_dynstat_advvel_del2       =   2.6635764683024E-02
(PID.TID 0000.0001) %MON ad_dynstat_adwvel_max        =   4.6781211998124E+01
(PID.TID 0000.0001) %MON ad_dynstat_adwvel_min        =  -1.0403714234490E+02
(PID.TID 0000.0001) %MON ad_dynstat_adwvel_mean       =  -1.7117140077900E-04
(PID.TID 0000.0001) %MON ad_dynstat_adwvel_sd         =   1.7896648689804E-01
(PID.TID 0000.0001) %MON ad_dynstat_adwvel_del2       =   7.7269967252400E-03
(PID.TID 0000.0001) %MON ad_dynstat_adtheta_max       =   2.6632723208059E+00
(PID.TID 0000.0001) %MON ad_dynstat_adtheta_min       =  -1.7978092567131E+00
(PID.TID 0000.0001) %MON ad_dynstat_adtheta_mean      =   5.0580485580600E-04
(PID.TID 0000.0001) %MON ad_dynstat_adtheta_sd        =   2.0214701649545E-01
(PID.TID 0000.0001) %MON ad_dynstat_adtheta_del2      =   1.1607926815777E-03
(PID.TID 0000.0001) %MON ad_dynstat_adsalt_max        =   1.0531424344762E+01
(PID.TID 0000.0001) %MON ad_dynstat_adsalt_min        =  -1.5650522101336E+01
(PID.TID 0000.0001) %MON ad_dynstat_adsalt_mean       =  -2.6601750391080E-03
(PID.TID 0000.0001) %MON ad_dynstat_adsalt_sd         =   1.1039752696079E+00
(PID.TID 0000.0001) %MON ad_dynstat_adsalt_del2       =   6.1848043555848E-03
(PID.TID 0000.0001) %MON ad_dynstat_adsst_max         =   1.1780409234874E-01
(PID.TID 0000.0001) %MON ad_dynstat_adsst_min         =  -1.0344657184835E-01
(PID.TID 0000.0001) %MON ad_dynstat_adsst_mean        =   1.1520363023357E-04
(PID.TID 0000.0001) %MON ad_dynstat_adsst_sd          =   1.4625218621560E-02
(PID.TID 0000.0001) %MON ad_dynstat_adsst_del2        =   3.6439166688238E-04
(PID.TID 0000.0001) %MON ad_dynstat_adsss_max         =   2.5546280174473E-01
(PID.TID 0000.0001) %MON ad_dynstat_adsss_min         =  -3.4330114090767E-01
(PID.TID 0000.0001) %MON ad_dynstat_adsss_mean        =  -1.5951921638615E-04
(PID.TID 0000.0001) %MON ad_dynstat_adsss_sd          =   3.6992094042581E-02
(PID.TID 0000.0001) %MON ad_dynstat_adsss_del2        =   9.3920329886751E-04
(PID.TID 0000.0001) %MON ad_forcing_adqnet_max        =   0.0000000000000E+00
(PID.TID 0000.0001) %MON ad_forcing_adqnet_min        =   0.0000000000000E+00
(PID.TID 0000.0001) %MON ad_forcing_adqnet_mean       =   0.0000000000000E+00
(PID.TID 0000.0001) %MON ad_forcing_adqnet_sd         =   0.0000000000000E+00
(PID.TID 0000.0001) %MON ad_forcing_adqnet_del2       =   0.0000000000000E+00
(PID.TID 0000.0001) %MON ad_forcing_adqsw_max         =   5.4722505627735E-06
(PID.TID 0000.0001) %MON ad_forcing_adqsw_min         =  -4.7992180833393E-06
(PID.TID 0000.0001) %MON ad_forcing_adqsw_mean        =   8.6163544351552E-09
(PID.TID 0000.0001) %MON ad_forcing_adqsw_sd          =   2.8152215577381E-07
(PID.TID 0000.0001) %MON ad_forcing_adqsw_del2        =   8.7017831517082E-09
(PID.TID 0000.0001) %MON ad_forcing_adempmr_max       =   0.0000000000000E+00
(PID.TID 0000.0001) %MON ad_forcing_adempmr_min       =   0.0000000000000E+00
(PID.TID 0000.0001) %MON ad_forcing_adempmr_mean      =   0.0000000000000E+00
(PID.TID 0000.0001) %MON ad_forcing_adempmr_sd        =   0.0000000000000E+00
(PID.TID 0000.0001) %MON ad_forcing_adempmr_del2      =   0.0000000000000E+00
(PID.TID 0000.0001) %MON ad_forcing_adfu_max          =   0.0000000000000E+00
(PID.TID 0000.0001) %MON ad_forcing_adfu_min          =   0.0000000000000E+00
(PID.TID 0000.0001) %MON ad_forcing_adfu_mean         =   0.0000000000000E+00
(PID.TID 0000.0001) %MON ad_forcing_adfu_sd           =   0.0000000000000E+00
(PID.TID 0000.0001) %MON ad_forcing_adfu_del2         =   0.0000000000000E+00
(PID.TID 0000.0001) %MON ad_forcing_adfv_max          =   0.0000000000000E+00
(PID.TID 0000.0001) %MON ad_forcing_adfv_min          =   0.0000000000000E+00
(PID.TID 0000.0001) %MON ad_forcing_adfv_mean         =   0.0000000000000E+00
(PID.TID 0000.0001) %MON ad_forcing_adfv_sd           =   0.0000000000000E+00
(PID.TID 0000.0001) %MON ad_forcing_adfv_del2         =   0.0000000000000E+00
(PID.TID 0000.0001) // =======================================================
(PID.TID 0000.0001) // End AD_MONITOR dynamic field statistics
(PID.TID 0000.0001) // =======================================================
(PID.TID 0000.0001) // =======================================================
(PID.TID 0000.0001) // Begin AD_MONITOR ptracer field statistics
(PID.TID 0000.0001) // =======================================================
(PID.TID 0000.0001) %MON ad_trcstat_adptracer01_max   =   0.0000000000000E+00
(PID.TID 0000.0001) %MON ad_trcstat_adptracer01_min   =   0.0000000000000E+00
(PID.TID 0000.0001) %MON ad_trcstat_adptracer01_mean  =   0.0000000000000E+00
(PID.TID 0000.0001) %MON ad_trcstat_adptracer01_sd    =   0.0000000000000E+00
(PID.TID 0000.0001) %MON ad_trcstat_adptracer01_del2  =   0.0000000000000E+00
(PID.TID 0000.0001) %MON ad_trcstat_adptracer02_max   =   0.0000000000000E+00
(PID.TID 0000.0001) %MON ad_trcstat_adptracer02_min   =   0.0000000000000E+00
(PID.TID 0000.0001) %MON ad_trcstat_adptracer02_mean  =   0.0000000000000E+00
(PID.TID 0000.0001) %MON ad_trcstat_adptracer02_sd    =   0.0000000000000E+00
(PID.TID 0000.0001) %MON ad_trcstat_adptracer02_del2  =   0.0000000000000E+00
(PID.TID 0000.0001) %MON ad_trcstat_adptracer03_max   =   2.7645989527638E-35
(PID.TID 0000.0001) %MON ad_trcstat_adptracer03_min   =  -7.3202558752998E-34
(PID.TID 0000.0001) %MON ad_trcstat_adptracer03_mean  =  -3.1136409700076E-38
(PID.TID 0000.0001) %MON ad_trcstat_adptracer03_sd    =   4.1762611832781E-36
(PID.TID 0000.0001) %MON ad_trcstat_adptracer03_del2  =   2.8366895300215E-38
(PID.TID 0000.0001) %MON ad_trcstat_adptracer04_max   =   1.0908335754064E+01
(PID.TID 0000.0001) %MON ad_trcstat_adptracer04_min   =  -3.9806505784462E+03
(PID.TID 0000.0001) %MON ad_trcstat_adptracer04_mean  =  -3.8197664716386E+01
(PID.TID 0000.0001) %MON ad_trcstat_adptracer04_sd    =   3.4204774333729E+02
(PID.TID 0000.0001) %MON ad_trcstat_adptracer04_del2  =   7.6202292772478E-01
(PID.TID 0000.0001) %MON ad_trcstat_adptracer05_max   =   1.3547750504976E+04
(PID.TID 0000.0001) %MON ad_trcstat_adptracer05_min   =  -2.4417748954592E+01
(PID.TID 0000.0001) %MON ad_trcstat_adptracer05_mean  =   1.3014297594961E+02
(PID.TID 0000.0001) %MON ad_trcstat_adptracer05_sd    =   1.1654308724062E+03
(PID.TID 0000.0001) %MON ad_trcstat_adptracer05_del2  =   2.5966457763743E+00
(PID.TID 0000.0001) %MON ad_trcstat_adptracer06_max   =   2.3324891072096E+06
(PID.TID 0000.0001) %MON ad_trcstat_adptracer06_min   =  -1.9333591597279E+06
(PID.TID 0000.0001) %MON ad_trcstat_adptracer06_mean  =  -2.5395353649492E+02
(PID.TID 0000.0001) %MON ad_trcstat_adptracer06_sd    =   1.0930174588455E+05
(PID.TID 0000.0001) %MON ad_trcstat_adptracer06_del2  =   5.4263231451329E+02
(PID.TID 0000.0001) %MON ad_trcstat_adptracer07_max   =   0.0000000000000E+00
(PID.TID 0000.0001) %MON ad_trcstat_adptracer07_min   =   0.0000000000000E+00
(PID.TID 0000.0001) %MON ad_trcstat_adptracer07_mean  =   0.0000000000000E+00
(PID.TID 0000.0001) %MON ad_trcstat_adptracer07_sd    =   0.0000000000000E+00
(PID.TID 0000.0001) %MON ad_trcstat_adptracer07_del2  =   0.0000000000000E+00
(PID.TID 0000.0001) %MON ad_trcstat_adptracer08_max   =   0.0000000000000E+00
(PID.TID 0000.0001) %MON ad_trcstat_adptracer08_min   =   0.0000000000000E+00
(PID.TID 0000.0001) %MON ad_trcstat_adptracer08_mean  =   0.0000000000000E+00
(PID.TID 0000.0001) %MON ad_trcstat_adptracer08_sd    =   0.0000000000000E+00
(PID.TID 0000.0001) %MON ad_trcstat_adptracer08_del2  =   0.0000000000000E+00
(PID.TID 0000.0001) %MON ad_trcstat_adptracer09_max   =   0.0000000000000E+00
(PID.TID 0000.0001) %MON ad_trcstat_adptracer09_min   =   0.0000000000000E+00
(PID.TID 0000.0001) %MON ad_trcstat_adptracer09_mean  =   0.0000000000000E+00
(PID.TID 0000.0001) %MON ad_trcstat_adptracer09_sd    =   0.0000000000000E+00
(PID.TID 0000.0001) %MON ad_trcstat_adptracer09_del2  =   0.0000000000000E+00
(PID.TID 0000.0001) // =======================================================
(PID.TID 0000.0001) // End AD_MONITOR ptracer field statistics
(PID.TID 0000.0001) // =======================================================
 cg2d: Sum(rhs),rhsMax =  -2.56796862420361E-13  6.68614452269923E-04
 cg2d: Sum(rhs),rhsMax =  -5.83710352941580E-07  8.73460151758486E+00
 cg2d: Sum(rhs),rhsMax =  -5.83363998885034E-07  8.73978716602284E+00
 cg2d: Sum(rhs),rhsMax =  -5.83016493749255E-07  8.74500048409303E+00
 cg2d: Sum(rhs),rhsMax =  -8.43844262021776E-07  8.75023977834475E+00
 cg2d: Sum(rhs),rhsMax =  -3.40038327356629E-13  7.58548704422258E-04
 cg2d: Sum(rhs),rhsMax =  -5.83710352941580E-07  8.73460151758486E+00
 cg2d: Sum(rhs),rhsMax =  -5.83363998885034E-07  8.73978716602284E+00
 cg2d: Sum(rhs),rhsMax =  -5.55906865429279E-07  8.74500055762482E+00
 cg2d: Sum(rhs),rhsMax =  -2.80930443838368E-13  8.41128955469486E-04
 cg2d: Sum(rhs),rhsMax =  -5.83710352941580E-07  8.73460151758486E+00
 cg2d: Sum(rhs),rhsMax =  -4.63739468159474E-07  8.73978708796721E+00
 cg2d: Sum(rhs),rhsMax =  -1.22362189824976E-13  9.33024577708081E-04
 cg2d: Sum(rhs),rhsMax =  -5.83710324519870E-07  8.73460151735884E+00
 cg2d: Sum(rhs),rhsMax =   8.61372605187594E-14  1.02435712675024E-03
 cg2d: Sum(rhs),rhsMax =  -2.44783471714527E-07  8.51897418323859E+00
 cg2d: Sum(rhs),rhsMax =  -2.44957739425899E-07  8.51294224856493E+00
 cg2d: Sum(rhs),rhsMax =  -2.45131850817870E-07  8.50690564885983E+00
 cg2d: Sum(rhs),rhsMax =  -2.45306104318388E-07  8.50087010325378E+00
 cg2d: Sum(rhs),rhsMax =  -2.45480840987966E-07  8.49484030788981E+00
 cg2d: Sum(rhs),rhsMax =  -2.45655421338142E-07  8.48882091652209E+00
 cg2d: Sum(rhs),rhsMax =  -2.45829966161182E-07  8.48281648598470E+00
 cg2d: Sum(rhs),rhsMax =  -2.46003693860075E-07  8.47683141604414E+00
 cg2d: Sum(rhs),rhsMax =  -2.46177087603883E-07  8.47086986481543E+00
 cg2d: Sum(rhs),rhsMax =  -2.46350516874827E-07  8.46493565647207E+00
 EXTERNAL_FIELDS_LOAD, it=   3600570 : Reading new data, i0,i1=   10   11 (prev=    9    1 )
 DIC_FIELDS_LOAD, it=   3600570 : Reading new data, i0,i1=   10   11 (prev=    9   10 )
 cg2d: Sum(rhs),rhsMax =  -2.46522958491369E-07  8.45903217397129E+00
 cg2d: Sum(rhs),rhsMax =  -2.46693353744831E-07  8.45319776100662E+00
 cg2d: Sum(rhs),rhsMax =  -2.46861752373206E-07  8.44745780781015E+00
 cg2d: Sum(rhs),rhsMax =  -2.47026463284783E-07  8.44183689308228E+00
 cg2d: Sum(rhs),rhsMax =  -2.47187230684176E-07  8.43635808123200E+00
 cg2d: Sum(rhs),rhsMax =  -2.47343706405445E-07  8.43104233122613E+00
 cg2d: Sum(rhs),rhsMax =  -2.47495002270171E-07  8.42590806033104E+00
 cg2d: Sum(rhs),rhsMax =  -2.47640862482967E-07  8.42097079337588E+00
 cg2d: Sum(rhs),rhsMax =  -2.47780199913450E-07  8.41624287670950E+00
 cg2d: Sum(rhs),rhsMax =  -2.47913433781832E-07  8.41173327531019E+00
 cg2d: Sum(rhs),rhsMax =  -2.48040628036961E-07  8.40744751803125E+00
 cg2d: Sum(rhs),rhsMax =  -2.48160993976398E-07  8.40338776690083E+00
 cg2d: Sum(rhs),rhsMax =  -2.48274659497838E-07  8.39955295260282E+00
 cg2d: Sum(rhs),rhsMax =  -2.48382001188929E-07  8.39593904397255E+00
 cg2d: Sum(rhs),rhsMax =  -2.48483310372194E-07  8.39253935780259E+00
 cg2d: Sum(rhs),rhsMax =  -2.48578452044512E-07  8.38934486115791E+00
 cg2d: Sum(rhs),rhsMax =  -2.48667660684987E-07  8.38634455564178E+00
 cg2d: Sum(rhs),rhsMax =  -2.48751881315457E-07  8.38352593271183E+00
 cg2d: Sum(rhs),rhsMax =  -2.48830964721947E-07  8.38087545512510E+00
 cg2d: Sum(rhs),rhsMax =  -2.48905820399159E-07  8.37837910210342E+00
 cg2d: Sum(rhs),rhsMax =  -2.48976242289700E-07  8.37602295704436E+00
 cg2d: Sum(rhs),rhsMax =  -2.49042699351776E-07  8.37379380797618E+00
 cg2d: Sum(rhs),rhsMax =  -2.49106562932866E-07  8.37167959361354E+00
 cg2d: Sum(rhs),rhsMax =  -2.49166241417242E-07  8.36966926830838E+00
 cg2d: Sum(rhs),rhsMax =  -2.49223795378839E-07  8.36775333408158E+00
 cg2d: Sum(rhs),rhsMax =  -2.49279089814536E-07  8.36592380342866E+00
 cg2d: Sum(rhs),rhsMax =  -2.49331364443606E-07  8.36417416133343E+00
 cg2d: Sum(rhs),rhsMax =  -2.49381677974725E-07  8.36249928728285E+00
 cg2d: Sum(rhs),rhsMax =  -2.49429696452808E-07  8.36089538401903E+00
 cg2d: Sum(rhs),rhsMax =  -2.49476237002000E-07  8.35935991281295E+00
 cg2d: Sum(rhs),rhsMax =  -2.49520162753925E-07  8.35789146030961E+00
 cg2d: Sum(rhs),rhsMax =  -2.49562525311831E-07  8.35648964985200E+00
 cg2d: Sum(rhs),rhsMax =  -2.49602841506658E-07  8.35515513914879E+00
 cg2d: Sum(rhs),rhsMax =  -2.49640748961610E-07  8.35388971117527E+00
 cg2d: Sum(rhs),rhsMax =  -2.49676844532587E-07  8.35269628610801E+00
 cg2d: Sum(rhs),rhsMax =  -2.49710517152835E-07  8.35157887088272E+00
 cg2d: Sum(rhs),rhsMax =  -2.49741731295217E-07  8.35054250509572E+00
 cg2d: Sum(rhs),rhsMax =  -2.49770394589177E-07  8.34959323059716E+00
 cg2d: Sum(rhs),rhsMax =  -2.49796435980443E-07  8.34873810769870E+00
 cg2d: Sum(rhs),rhsMax =  -2.49819045450295E-07  8.34798512227025E+00
 cg2d: Sum(rhs),rhsMax =  -2.49838244315015E-07  8.34734290261435E+00
 cg2d: Sum(rhs),rhsMax =  -2.49853975731185E-07  8.34682030367283E+00
 cg2d: Sum(rhs),rhsMax =  -2.49866459967052E-07  8.34642602050246E+00
 cg2d: Sum(rhs),rhsMax =  -2.49874005930906E-07  8.34616833018179E+00
 cg2d: Sum(rhs),rhsMax =  -2.49877167846080E-07  8.34605492416921E+00
 cg2d: Sum(rhs),rhsMax =  -2.49876372038216E-07  8.34609271647880E+00
 cg2d: Sum(rhs),rhsMax =  -2.49870495849791E-07  8.34628766951383E+00
 cg2d: Sum(rhs),rhsMax =  -2.49859972711874E-07  8.34664465917166E+00
 cg2d: Sum(rhs),rhsMax =  -2.49844404720534E-07  8.34716735659488E+00
 cg2d: Sum(rhs),rhsMax =  -2.49823550291239E-07  8.34785810988885E+00
 cg2d: Sum(rhs),rhsMax =  -2.49798063123308E-07  8.34871787621402E+00
 cg2d: Sum(rhs),rhsMax =  -2.49766976878618E-07  8.34974617920463E+00
 cg2d: Sum(rhs),rhsMax =  -2.49731257895291E-07  8.35094113608330E+00
 cg2d: Sum(rhs),rhsMax =  -2.49690643272515E-07  8.35229948619608E+00
 cg2d: Sum(rhs),rhsMax =  -2.49645175642854E-07  8.35381675511217E+00
 cg2d: Sum(rhs),rhsMax =  -2.49595025536564E-07  8.35548736188202E+00
 cg2d: Sum(rhs),rhsMax =  -2.49540875074672E-07  8.35730476743729E+00
 cg2d: Sum(rhs),rhsMax =  -2.49482035030724E-07  8.35926164070414E+00
 cg2d: Sum(rhs),rhsMax =  -2.49419819908780E-07  8.36135002375845E+00
 cg2d: Sum(rhs),rhsMax =  -2.49353568904098E-07  8.36356151790629E+00
 EXTERNAL_FIELDS_LOAD, it=   3600630 : Reading new data, i0,i1=   11   12 (prev=   10   11 )
 DIC_FIELDS_LOAD, it=   3600630 : Reading new data, i0,i1=   11   12 (prev=   10   11 )
 cg2d: Sum(rhs),rhsMax =  -2.49283999664840E-07  8.36588746134833E+00
 cg2d: Sum(rhs),rhsMax =  -2.49212149583400E-07  8.36830171267966E+00
 cg2d: Sum(rhs),rhsMax =  -2.49137990238069E-07  8.37078382670868E+00
 cg2d: Sum(rhs),rhsMax =  -2.49062694024360E-07  8.37331347128018E+00
 cg2d: Sum(rhs),rhsMax =  -2.48986417261676E-07  8.37587083487809E+00
 cg2d: Sum(rhs),rhsMax =  -2.48910055233864E-07  8.37843890797547E+00
 cg2d: Sum(rhs),rhsMax =  -2.48833615046351E-07  8.38100282447941E+00
 cg2d: Sum(rhs),rhsMax =  -2.48757785925591E-07  8.38355008718710E+00
 cg2d: Sum(rhs),rhsMax =  -2.48682930248378E-07  8.38607101327765E+00
 cg2d: Sum(rhs),rhsMax =  -2.48608408526252E-07  8.38855886249661E+00
 cg2d: Sum(rhs),rhsMax =  -2.48536004221478E-07  8.39100987040112E+00
 cg2d: Sum(rhs),rhsMax =  -2.48464210983457E-07  8.39342320470582E+00
 cg2d: Sum(rhs),rhsMax =  -2.48393547508385E-07  8.39580086228628E+00
 cg2d: Sum(rhs),rhsMax =  -2.48323665630323E-07  8.39814747768731E+00
 cg2d: Sum(rhs),rhsMax =  -2.48254892198929E-07  8.40047003473604E+00
 cg2d: Sum(rhs),rhsMax =  -2.48186310614074E-07  8.40277751423481E+00
 cg2d: Sum(rhs),rhsMax =  -2.48117892454047E-07  8.40508048455822E+00
 cg2d: Sum(rhs),rhsMax =  -2.48049687456842E-07  8.40739063604165E+00
 cg2d: Sum(rhs),rhsMax =  -2.47980871392883E-07  8.40972032300375E+00
 cg2d: Sum(rhs),rhsMax =  -2.47910648454308E-07  8.41208213189281E+00
 cg2d: Sum(rhs),rhsMax =  -2.47839537337313E-07  8.41448816606350E+00
 cg2d: Sum(rhs),rhsMax =  -2.47766863026300E-07  8.41694970128980E+00
 cg2d: Sum(rhs),rhsMax =  -2.47691964716523E-07  8.41947813091076E+00
 cg2d: Sum(rhs),rhsMax =  -2.47614714510291E-07  8.42209648974696E+00
 cg2d: Sum(rhs),rhsMax =  -2.47534813979655E-07  8.42482035527151E+00
 cg2d: Sum(rhs),rhsMax =  -2.47451126256237E-07  8.42766351995909E+00
 cg2d: Sum(rhs),rhsMax =  -2.47363992400551E-07  8.43063783312212E+00
 cg2d: Sum(rhs),rhsMax =  -2.47272517128749E-07  8.43375283121391E+00
 cg2d: Sum(rhs),rhsMax =  -2.47176934919935E-07  8.43701559654336E+00
 cg2d: Sum(rhs),rhsMax =  -2.47076883397312E-07  8.44043066353450E+00
 cg2d: Sum(rhs),rhsMax =  -2.46972234663190E-07  8.44400002260639E+00
 cg2d: Sum(rhs),rhsMax =  -2.46863251618379E-07  8.44772316054511E+00
 cg2d: Sum(rhs),rhsMax =  -2.46750062160572E-07  8.45159719138741E+00
 cg2d: Sum(rhs),rhsMax =  -2.46632367861821E-07  8.45561701011588E+00
 cg2d: Sum(rhs),rhsMax =  -2.46511149271100E-07  8.45977551282957E+00
 cg2d: Sum(rhs),rhsMax =  -2.46386285596145E-07  8.46406373659226E+00
 cg2d: Sum(rhs),rhsMax =  -2.46257769731528E-07  8.46847122879392E+00
 cg2d: Sum(rhs),rhsMax =  -2.46126411695968E-07  8.47298635145432E+00
 cg2d: Sum(rhs),rhsMax =  -2.45992481495705E-07  8.47759653567383E+00
 cg2d: Sum(rhs),rhsMax =  -2.45856256242405E-07  8.48228855871733E+00
 cg2d: Sum(rhs),rhsMax =  -2.45718460689659E-07  8.48704884333580E+00
 cg2d: Sum(rhs),rhsMax =  -2.45578725355244E-07  8.49186380279765E+00
 cg2d: Sum(rhs),rhsMax =  -2.45438343426940E-07  8.49672023122521E+00
 cg2d: Sum(rhs),rhsMax =  -2.45297442802439E-07  8.50160566769727E+00
 cg2d: Sum(rhs),rhsMax =  -2.45155710842937E-07  8.50650876168224E+00
 cg2d: Sum(rhs),rhsMax =  -2.45014355471085E-07  8.51141938832254E+00
 cg2d: Sum(rhs),rhsMax =  -2.44872978782951E-07  8.51632882603140E+00
 cg2d: Sum(rhs),rhsMax =  -2.44732156318150E-07  8.52122992574505E+00
 cg2d: Sum(rhs),rhsMax =  -2.44592122555787E-07  8.52611725421215E+00
 cg2d: Sum(rhs),rhsMax =  -2.44452138531415E-07  8.53098720300080E+00
 cg2d: Sum(rhs),rhsMax =  -2.44313056896317E-07  8.53583804386303E+00
 cg2d: Sum(rhs),rhsMax =  -2.44175289765280E-07  8.54066993807463E+00
 cg2d: Sum(rhs),rhsMax =  -2.44037558161381E-07  8.54548489389639E+00
 cg2d: Sum(rhs),rhsMax =  -2.43900487362225E-07  8.55028665503631E+00
 cg2d: Sum(rhs),rhsMax =  -2.43763828677857E-07  8.55508055409759E+00
 cg2d: Sum(rhs),rhsMax =  -2.43627631846266E-07  8.55987334584090E+00
 cg2d: Sum(rhs),rhsMax =  -2.43490916318478E-07  8.56467304589797E+00
 cg2d: Sum(rhs),rhsMax =  -2.43354129736417E-07  8.56948875081293E+00
 cg2d: Sum(rhs),rhsMax =  -2.43216923934142E-07  8.57433041210705E+00
 cg2d: Sum(rhs),rhsMax =  -2.43078602579772E-07  8.57920857075689E+00
 EXTERNAL_FIELDS_LOAD, it=   3600690 : Reading new data, i0,i1=   12    1 (prev=   11   12 )
 DIC_FIELDS_LOAD, it=   3600690 : Reading new data, i0,i1=   12    1 (prev=   11   12 )
 cg2d: Sum(rhs),rhsMax =  -2.42939044881041E-07  8.58413406052202E+00
 cg2d: Sum(rhs),rhsMax =  -2.42799337968336E-07  8.58909115986565E+00
 cg2d: Sum(rhs),rhsMax =  -2.42658693139219E-07  8.59407439112439E+00
 cg2d: Sum(rhs),rhsMax =  -2.42517621984462E-07  8.59907838916988E+00
 cg2d: Sum(rhs),rhsMax =  -2.42376209769191E-07  8.60409812483420E+00
 cg2d: Sum(rhs),rhsMax =  -2.42234591496526E-07  8.60912903142987E+00
 cg2d: Sum(rhs),rhsMax =  -2.42093065594418E-07  8.61416710086381E+00
 cg2d: Sum(rhs),rhsMax =  -2.41951582324873E-07  8.61920891727868E+00
 cg2d: Sum(rhs),rhsMax =  -2.41810418799560E-07  8.62425159962176E+00
 cg2d: Sum(rhs),rhsMax =  -2.41669411593648E-07  8.62929265748306E+00
 cg2d: Sum(rhs),rhsMax =  -2.41528212541198E-07  8.63432985252268E+00
 cg2d: Sum(rhs),rhsMax =  -2.41388200095116E-07  8.63936110467875E+00
 cg2d: Sum(rhs),rhsMax =  -2.41247725796256E-07  8.64438452071694E+00
 cg2d: Sum(rhs),rhsMax =  -2.41107890985859E-07  8.64939845502298E+00
 cg2d: Sum(rhs),rhsMax =  -2.40969008302727E-07  8.65440163740473E+00
 cg2d: Sum(rhs),rhsMax =  -2.40829955089339E-07  8.65939341167613E+00
 cg2d: Sum(rhs),rhsMax =  -2.40691825581507E-07  8.66437380926046E+00
 cg2d: Sum(rhs),rhsMax =  -2.40553994501624E-07  8.66934351194661E+00
 cg2d: Sum(rhs),rhsMax =  -2.40416618169093E-07  8.67430280369745E+00
 cg2d: Sum(rhs),rhsMax =  -2.40279604213356E-07  8.67925548690400E+00
 cg2d: Sum(rhs),rhsMax =   2.00777520831252E-07  8.68420657220875E+00
 cg2d: Sum(rhs),rhsMax =   2.00663045291094E-07  8.68916134264664E+00
 cg2d: Sum(rhs),rhsMax =   2.00548242901277E-07  8.69412472114065E+00
 cg2d: Sum(rhs),rhsMax =   2.00433248664922E-07  8.69910143373021E+00
 cg2d: Sum(rhs),rhsMax =   2.00318069687455E-07  8.70409578642793E+00
 cg2d: Sum(rhs),rhsMax =   2.00202940447980E-07  8.70911160063961E+00
 cg2d: Sum(rhs),rhsMax =   2.00086823554102E-07  8.71415215595302E+00
 cg2d: Sum(rhs),rhsMax =   1.99970273229155E-07  8.71921997608347E+00
 cg2d: Sum(rhs),rhsMax =   1.99853396054550E-07  8.72431672053094E+00
 cg2d: Sum(rhs),rhsMax =   1.99736057027167E-07  8.72944320262722E+00
 cg2d: Sum(rhs),rhsMax =   2.00777520831252E-07  8.68420657220875E+00
 cg2d: Sum(rhs),rhsMax =   2.00663045291094E-07  8.68916134264664E+00
 cg2d: Sum(rhs),rhsMax =   2.00548242901277E-07  8.69412472114065E+00
 cg2d: Sum(rhs),rhsMax =   2.00433248664922E-07  8.69910143373021E+00
 cg2d: Sum(rhs),rhsMax =   2.00318069687455E-07  8.70409578642793E+00
 cg2d: Sum(rhs),rhsMax =   2.00202940447980E-07  8.70911160063961E+00
 cg2d: Sum(rhs),rhsMax =   2.00086823554102E-07  8.71415215595302E+00
 cg2d: Sum(rhs),rhsMax =   1.99970273229155E-07  8.71921997608347E+00
 cg2d: Sum(rhs),rhsMax =   1.99853396054550E-07  8.72431672053094E+00
 cg2d: Sum(rhs),rhsMax =   4.89213633159125E-07  8.72944350291724E+00
 cg2d: Sum(rhs),rhsMax =   9.16428391506408E-14  1.11384192951035E-03
 cg2d: Sum(rhs),rhsMax =   2.00777520831252E-07  8.68420657220875E+00
 cg2d: Sum(rhs),rhsMax =   2.00663045291094E-07  8.68916134264664E+00
 cg2d: Sum(rhs),rhsMax =   2.00548242901277E-07  8.69412472114065E+00
 cg2d: Sum(rhs),rhsMax =   2.00433248664922E-07  8.69910143373021E+00
 cg2d: Sum(rhs),rhsMax =   2.00318069687455E-07  8.70409578642793E+00
 cg2d: Sum(rhs),rhsMax =   2.00202940447980E-07  8.70911160063961E+00
 cg2d: Sum(rhs),rhsMax =   2.00086823554102E-07  8.71415215595302E+00
 cg2d: Sum(rhs),rhsMax =   1.99970273229155E-07  8.71921997608347E+00
 cg2d: Sum(rhs),rhsMax =   1.40716635144145E-06  8.72431668455253E+00
 cg2d: Sum(rhs),rhsMax =   8.58792204017080E-14  1.19996879349920E-03
 cg2d: Sum(rhs),rhsMax =   2.00777520831252E-07  8.68420657220875E+00
 cg2d: Sum(rhs),rhsMax =   2.00663045291094E-07  8.68916134264664E+00
 cg2d: Sum(rhs),rhsMax =   2.00548242901277E-07  8.69412472114065E+00
 cg2d: Sum(rhs),rhsMax =   2.00433248664922E-07  8.69910143373021E+00
 cg2d: Sum(rhs),rhsMax =   2.00318069687455E-07  8.70409578642793E+00
 cg2d: Sum(rhs),rhsMax =   2.00202940447980E-07  8.70911160063961E+00
 cg2d: Sum(rhs),rhsMax =   2.00086823554102E-07  8.71415215595302E+00
 cg2d: Sum(rhs),rhsMax =  -1.47099688518892E-06  8.71922002382594E+00
 cg2d: Sum(rhs),rhsMax =   8.70831184940485E-15  1.28120071080226E-03
 cg2d: Sum(rhs),rhsMax =   2.00777520831252E-07  8.68420657220875E+00
 cg2d: Sum(rhs),rhsMax =   2.00663045291094E-07  8.68916134264664E+00
 cg2d: Sum(rhs),rhsMax =   2.00548242901277E-07  8.69412472114065E+00
 cg2d: Sum(rhs),rhsMax =   2.00433248664922E-07  8.69910143373021E+00
 cg2d: Sum(rhs),rhsMax =   2.00318069687455E-07  8.70409578642793E+00
 cg2d: Sum(rhs),rhsMax =   2.00202940447980E-07  8.70911160063961E+00
 cg2d: Sum(rhs),rhsMax =  -2.96031252844386E-07  8.71415201851714E+00
 cg2d: Sum(rhs),rhsMax =  -4.55122051157190E-14  1.35693390343039E-03
 cg2d: Sum(rhs),rhsMax =   2.00777520831252E-07  8.68420657220875E+00
 cg2d: Sum(rhs),rhsMax =   2.00663045291094E-07  8.68916134264664E+00
 cg2d: Sum(rhs),rhsMax =   2.00548242901277E-07  8.69412472114065E+00
 cg2d: Sum(rhs),rhsMax =   2.00433248664922E-07  8.69910143373021E+00
 cg2d: Sum(rhs),rhsMax =   2.00318069687455E-07  8.70409578642793E+00
 cg2d: Sum(rhs),rhsMax =   1.06568833757592E-08  8.70911190649876E+00
 cg2d: Sum(rhs),rhsMax =  -1.18849374786070E-13  1.42761401142357E-03
 cg2d: Sum(rhs),rhsMax =   2.00777520831252E-07  8.68420657220875E+00
 cg2d: Sum(rhs),rhsMax =   2.00663045291094E-07  8.68916134264664E+00
 cg2d: Sum(rhs),rhsMax =   2.00548242901277E-07  8.69412472114065E+00
 cg2d: Sum(rhs),rhsMax =   2.00433248664922E-07  8.69910143373021E+00
 cg2d: Sum(rhs),rhsMax =  -8.38892347587716E-07  8.70409573942950E+00
 cg2d: Sum(rhs),rhsMax =  -1.51365031619526E-13  1.49413339133686E-03
 cg2d: Sum(rhs),rhsMax =   2.00777520831252E-07  8.68420657220875E+00
 cg2d: Sum(rhs),rhsMax =   2.00663045291094E-07  8.68916134264664E+00
 cg2d: Sum(rhs),rhsMax =   2.00548242901277E-07  8.69412472114065E+00
 cg2d: Sum(rhs),rhsMax =   9.96421157140048E-07  8.69910164786818E+00
 cg2d: Sum(rhs),rhsMax =  -1.35585986880679E-13  1.55747692794239E-03
 cg2d: Sum(rhs),rhsMax =   2.00777520831252E-07  8.68420657220875E+00
 cg2d: Sum(rhs),rhsMax =   2.00663045291094E-07  8.68916134264664E+00
 cg2d: Sum(rhs),rhsMax =  -7.61923089953598E-07  8.69412468610573E+00
 cg2d: Sum(rhs),rhsMax =  -1.56111235041524E-13  1.61812009654495E-03
 cg2d: Sum(rhs),rhsMax =   2.00777520831252E-07  8.68420657220875E+00
 cg2d: Sum(rhs),rhsMax =   1.03933638939679E-06  8.68916138229693E+00
 cg2d: Sum(rhs),rhsMax =  -5.45119504673019E-14  1.67584351858097E-03
 cg2d: Sum(rhs),rhsMax =   2.00777535042107E-07  8.68420657227708E+00
 cg2d: Sum(rhs),rhsMax =   8.63475959336571E-14  1.73015688624593E-03
 cg2d: Sum(rhs),rhsMax =  -2.44783471714527E-07  8.51897418323859E+00
 cg2d: Sum(rhs),rhsMax =  -2.44957739425899E-07  8.51294224856493E+00
 cg2d: Sum(rhs),rhsMax =  -2.45131850817870E-07  8.50690564885983E+00
 cg2d: Sum(rhs),rhsMax =  -2.45306104318388E-07  8.50087010325378E+00
 cg2d: Sum(rhs),rhsMax =  -2.45480840987966E-07  8.49484030788981E+00
 cg2d: Sum(rhs),rhsMax =  -2.45655421338142E-07  8.48882091652209E+00
 cg2d: Sum(rhs),rhsMax =  -2.45829966161182E-07  8.48281648598470E+00
 cg2d: Sum(rhs),rhsMax =  -2.46003693860075E-07  8.47683141604414E+00
 cg2d: Sum(rhs),rhsMax =  -2.46177087603883E-07  8.47086986481543E+00
 cg2d: Sum(rhs),rhsMax =  -2.46350516874827E-07  8.46493565647207E+00
 EXTERNAL_FIELDS_LOAD, it=   3600570 : Reading new data, i0,i1=   10   11 (prev=    9    1 )
 DIC_FIELDS_LOAD, it=   3600570 : Reading new data, i0,i1=   10   11 (prev=    9   10 )
 cg2d: Sum(rhs),rhsMax =  -2.46522958491369E-07  8.45903217397129E+00
 cg2d: Sum(rhs),rhsMax =  -2.46693353744831E-07  8.45319776100662E+00
 cg2d: Sum(rhs),rhsMax =  -2.46861752373206E-07  8.44745780781015E+00
 cg2d: Sum(rhs),rhsMax =  -2.47026463284783E-07  8.44183689308228E+00
 cg2d: Sum(rhs),rhsMax =  -2.47187230684176E-07  8.43635808123200E+00
 cg2d: Sum(rhs),rhsMax =  -2.47343706405445E-07  8.43104233122613E+00
 cg2d: Sum(rhs),rhsMax =  -2.47495002270171E-07  8.42590806033104E+00
 cg2d: Sum(rhs),rhsMax =  -2.47640862482967E-07  8.42097079337588E+00
 cg2d: Sum(rhs),rhsMax =  -2.47780199913450E-07  8.41624287670950E+00
 cg2d: Sum(rhs),rhsMax =  -2.47913433781832E-07  8.41173327531019E+00
 cg2d: Sum(rhs),rhsMax =  -2.48040628036961E-07  8.40744751803125E+00
 cg2d: Sum(rhs),rhsMax =  -2.48160993976398E-07  8.40338776690083E+00
 cg2d: Sum(rhs),rhsMax =  -2.48274659497838E-07  8.39955295260282E+00
 cg2d: Sum(rhs),rhsMax =  -2.48382001188929E-07  8.39593904397255E+00
 cg2d: Sum(rhs),rhsMax =  -2.48483310372194E-07  8.39253935780259E+00
 cg2d: Sum(rhs),rhsMax =  -2.48578452044512E-07  8.38934486115791E+00
 cg2d: Sum(rhs),rhsMax =  -2.48667660684987E-07  8.38634455564178E+00
 cg2d: Sum(rhs),rhsMax =  -2.48751881315457E-07  8.38352593271183E+00
 cg2d: Sum(rhs),rhsMax =  -2.48830964721947E-07  8.38087545512510E+00
 cg2d: Sum(rhs),rhsMax =  -2.48905820399159E-07  8.37837910210342E+00
 cg2d: Sum(rhs),rhsMax =  -2.48976242289700E-07  8.37602295704436E+00
 cg2d: Sum(rhs),rhsMax =  -2.49042699351776E-07  8.37379380797618E+00
 cg2d: Sum(rhs),rhsMax =  -2.49106562932866E-07  8.37167959361354E+00
 cg2d: Sum(rhs),rhsMax =  -2.49166241417242E-07  8.36966926830838E+00
 cg2d: Sum(rhs),rhsMax =  -2.49223795378839E-07  8.36775333408158E+00
 cg2d: Sum(rhs),rhsMax =  -2.49279089814536E-07  8.36592380342866E+00
 cg2d: Sum(rhs),rhsMax =  -2.49331364443606E-07  8.36417416133343E+00
 cg2d: Sum(rhs),rhsMax =  -2.49381677974725E-07  8.36249928728285E+00
 cg2d: Sum(rhs),rhsMax =  -2.49429696452808E-07  8.36089538401903E+00
 cg2d: Sum(rhs),rhsMax =  -2.49476237002000E-07  8.35935991281295E+00
 cg2d: Sum(rhs),rhsMax =  -2.49520162753925E-07  8.35789146030961E+00
 cg2d: Sum(rhs),rhsMax =  -2.49562525311831E-07  8.35648964985200E+00
 cg2d: Sum(rhs),rhsMax =  -2.49602841506658E-07  8.35515513914879E+00
 cg2d: Sum(rhs),rhsMax =  -2.49640748961610E-07  8.35388971117527E+00
 cg2d: Sum(rhs),rhsMax =  -2.49676844532587E-07  8.35269628610801E+00
 cg2d: Sum(rhs),rhsMax =  -2.49710517152835E-07  8.35157887088272E+00
 cg2d: Sum(rhs),rhsMax =  -2.49741731295217E-07  8.35054250509572E+00
 cg2d: Sum(rhs),rhsMax =  -2.49770394589177E-07  8.34959323059716E+00
 cg2d: Sum(rhs),rhsMax =  -2.49796435980443E-07  8.34873810769870E+00
 cg2d: Sum(rhs),rhsMax =  -2.49819045450295E-07  8.34798512227025E+00
 cg2d: Sum(rhs),rhsMax =  -2.49838244315015E-07  8.34734290261435E+00
 cg2d: Sum(rhs),rhsMax =  -2.49853975731185E-07  8.34682030367283E+00
 cg2d: Sum(rhs),rhsMax =  -2.49866459967052E-07  8.34642602050246E+00
 cg2d: Sum(rhs),rhsMax =  -2.49874005930906E-07  8.34616833018179E+00
 cg2d: Sum(rhs),rhsMax =  -2.49877167846080E-07  8.34605492416921E+00
 cg2d: Sum(rhs),rhsMax =  -2.49876372038216E-07  8.34609271647880E+00
 cg2d: Sum(rhs),rhsMax =  -2.49870495849791E-07  8.34628766951383E+00
 cg2d: Sum(rhs),rhsMax =  -2.49859972711874E-07  8.34664465917166E+00
 cg2d: Sum(rhs),rhsMax =  -2.49844404720534E-07  8.34716735659488E+00
 cg2d: Sum(rhs),rhsMax =  -2.49823550291239E-07  8.34785810988885E+00
 cg2d: Sum(rhs),rhsMax =  -2.49798063123308E-07  8.34871787621402E+00
 cg2d: Sum(rhs),rhsMax =  -2.49766976878618E-07  8.34974617920463E+00
 cg2d: Sum(rhs),rhsMax =  -2.49731257895291E-07  8.35094113608330E+00
 cg2d: Sum(rhs),rhsMax =  -2.49690643272515E-07  8.35229948619608E+00
 cg2d: Sum(rhs),rhsMax =  -2.49645175642854E-07  8.35381675511217E+00
 cg2d: Sum(rhs),rhsMax =  -2.49595025536564E-07  8.35548736188202E+00
 cg2d: Sum(rhs),rhsMax =  -2.49540875074672E-07  8.35730476743729E+00
 cg2d: Sum(rhs),rhsMax =  -2.49482035030724E-07  8.35926164070414E+00
 cg2d: Sum(rhs),rhsMax =  -2.49419819908780E-07  8.36135002375845E+00
 cg2d: Sum(rhs),rhsMax =  -2.49353568904098E-07  8.36356151790629E+00
 EXTERNAL_FIELDS_LOAD, it=   3600630 : Reading new data, i0,i1=   11   12 (prev=   10   11 )
 DIC_FIELDS_LOAD, it=   3600630 : Reading new data, i0,i1=   11   12 (prev=   10   11 )
 cg2d: Sum(rhs),rhsMax =  -2.49283999664840E-07  8.36588746134833E+00
 cg2d: Sum(rhs),rhsMax =  -2.49212149583400E-07  8.36830171267966E+00
 cg2d: Sum(rhs),rhsMax =  -2.49137990238069E-07  8.37078382670868E+00
 cg2d: Sum(rhs),rhsMax =  -2.49062694024360E-07  8.37331347128018E+00
 cg2d: Sum(rhs),rhsMax =  -2.48986417261676E-07  8.37587083487809E+00
 cg2d: Sum(rhs),rhsMax =  -2.48910055233864E-07  8.37843890797547E+00
 cg2d: Sum(rhs),rhsMax =  -2.48833615046351E-07  8.38100282447941E+00
 cg2d: Sum(rhs),rhsMax =  -2.48757785925591E-07  8.38355008718710E+00
 cg2d: Sum(rhs),rhsMax =  -2.48682930248378E-07  8.38607101327765E+00
 cg2d: Sum(rhs),rhsMax =  -2.48608408526252E-07  8.38855886249661E+00
 cg2d: Sum(rhs),rhsMax =  -2.48536004221478E-07  8.39100987040112E+00
 cg2d: Sum(rhs),rhsMax =  -2.48464210983457E-07  8.39342320470582E+00
 cg2d: Sum(rhs),rhsMax =  -2.48393547508385E-07  8.39580086228628E+00
 cg2d: Sum(rhs),rhsMax =  -2.48323665630323E-07  8.39814747768731E+00
 cg2d: Sum(rhs),rhsMax =  -2.48254892198929E-07  8.40047003473604E+00
 cg2d: Sum(rhs),rhsMax =  -2.48186310614074E-07  8.40277751423481E+00
 cg2d: Sum(rhs),rhsMax =  -2.48117892454047E-07  8.40508048455822E+00
 cg2d: Sum(rhs),rhsMax =  -2.48049687456842E-07  8.40739063604165E+00
 cg2d: Sum(rhs),rhsMax =  -2.47980871392883E-07  8.40972032300375E+00
 cg2d: Sum(rhs),rhsMax =  -2.47910648454308E-07  8.41208213189281E+00
 cg2d: Sum(rhs),rhsMax =  -2.47839537337313E-07  8.41448816606350E+00
 cg2d: Sum(rhs),rhsMax =  -2.47766863026300E-07  8.41694970128980E+00
 cg2d: Sum(rhs),rhsMax =  -2.47691964716523E-07  8.41947813091076E+00
 cg2d: Sum(rhs),rhsMax =  -2.47614714510291E-07  8.42209648974696E+00
 cg2d: Sum(rhs),rhsMax =  -2.47534813979655E-07  8.42482035527151E+00
 cg2d: Sum(rhs),rhsMax =  -2.47451126256237E-07  8.42766351995909E+00
 cg2d: Sum(rhs),rhsMax =  -2.47363992400551E-07  8.43063783312212E+00
 cg2d: Sum(rhs),rhsMax =  -2.47272517128749E-07  8.43375283121391E+00
 cg2d: Sum(rhs),rhsMax =  -2.47176934919935E-07  8.43701559654336E+00
 cg2d: Sum(rhs),rhsMax =  -2.47076883397312E-07  8.44043066353450E+00
 cg2d: Sum(rhs),rhsMax =  -2.46972234663190E-07  8.44400002260639E+00
 cg2d: Sum(rhs),rhsMax =  -2.46863251618379E-07  8.44772316054511E+00
 cg2d: Sum(rhs),rhsMax =  -2.46750062160572E-07  8.45159719138741E+00
 cg2d: Sum(rhs),rhsMax =  -2.46632367861821E-07  8.45561701011588E+00
 cg2d: Sum(rhs),rhsMax =  -2.46511149271100E-07  8.45977551282957E+00
 cg2d: Sum(rhs),rhsMax =  -2.46386285596145E-07  8.46406373659226E+00
 cg2d: Sum(rhs),rhsMax =  -2.46257769731528E-07  8.46847122879392E+00
 cg2d: Sum(rhs),rhsMax =  -2.46126411695968E-07  8.47298635145432E+00
 cg2d: Sum(rhs),rhsMax =  -2.45992481495705E-07  8.47759653567383E+00
 cg2d: Sum(rhs),rhsMax =  -2.45856256242405E-07  8.48228855871733E+00
 cg2d: Sum(rhs),rhsMax =  -2.45718460689659E-07  8.48704884333580E+00
 cg2d: Sum(rhs),rhsMax =  -2.45578725355244E-07  8.49186380279765E+00
 cg2d: Sum(rhs),rhsMax =  -2.45438343426940E-07  8.49672023122521E+00
 cg2d: Sum(rhs),rhsMax =  -2.45297442802439E-07  8.50160566769727E+00
 cg2d: Sum(rhs),rhsMax =  -2.45155710842937E-07  8.50650876168224E+00
 cg2d: Sum(rhs),rhsMax =  -2.45014355471085E-07  8.51141938832254E+00
 cg2d: Sum(rhs),rhsMax =  -2.44872978782951E-07  8.51632882603140E+00
 cg2d: Sum(rhs),rhsMax =  -2.44732156318150E-07  8.52122992574505E+00
 cg2d: Sum(rhs),rhsMax =  -2.44592122555787E-07  8.52611725421215E+00
 cg2d: Sum(rhs),rhsMax =  -2.44452138531415E-07  8.53098720300080E+00
 cg2d: Sum(rhs),rhsMax =  -2.44313056896317E-07  8.53583804386303E+00
 cg2d: Sum(rhs),rhsMax =  -2.44175289765280E-07  8.54066993807463E+00
 cg2d: Sum(rhs),rhsMax =  -2.44037558161381E-07  8.54548489389639E+00
 cg2d: Sum(rhs),rhsMax =  -2.43900487362225E-07  8.55028665503631E+00
 cg2d: Sum(rhs),rhsMax =  -2.43763828677857E-07  8.55508055409759E+00
 cg2d: Sum(rhs),rhsMax =  -2.43627631846266E-07  8.55987334584090E+00
 cg2d: Sum(rhs),rhsMax =  -2.43490916318478E-07  8.56467304589797E+00
 cg2d: Sum(rhs),rhsMax =  -2.43354129736417E-07  8.56948875081293E+00
 cg2d: Sum(rhs),rhsMax =  -2.43216923934142E-07  8.57433041210705E+00
 cg2d: Sum(rhs),rhsMax =  -2.43078602579772E-07  8.57920857075689E+00
 EXTERNAL_FIELDS_LOAD, it=   3600690 : Reading new data, i0,i1=   12    1 (prev=   11   12 )
 DIC_FIELDS_LOAD, it=   3600690 : Reading new data, i0,i1=   12    1 (prev=   11   12 )
 cg2d: Sum(rhs),rhsMax =  -2.42939044881041E-07  8.58413406052202E+00
 cg2d: Sum(rhs),rhsMax =  -2.42799337968336E-07  8.58909115986565E+00
 cg2d: Sum(rhs),rhsMax =  -2.42658693139219E-07  8.59407439112439E+00
 cg2d: Sum(rhs),rhsMax =  -2.42517621984462E-07  8.59907838916988E+00
 cg2d: Sum(rhs),rhsMax =  -2.42376209769191E-07  8.60409812483420E+00
 cg2d: Sum(rhs),rhsMax =  -2.42234591496526E-07  8.60912903142987E+00
 cg2d: Sum(rhs),rhsMax =  -2.42093065594418E-07  8.61416710086381E+00
 cg2d: Sum(rhs),rhsMax =  -2.41951582324873E-07  8.61920891727868E+00
 cg2d: Sum(rhs),rhsMax =  -2.41810418799560E-07  8.62425159962176E+00
 cg2d: Sum(rhs),rhsMax =  -2.41669411593648E-07  8.62929265748306E+00
 cg2d: Sum(rhs),rhsMax =   8.33825382073883E-08  8.63432991015313E+00
 cg2d: Sum(rhs),rhsMax =   8.33337523431510E-08  8.63936117085341E+00
 cg2d: Sum(rhs),rhsMax =   8.32852222742986E-08  8.64438459225620E+00
 cg2d: Sum(rhs),rhsMax =   8.32368627357027E-08  8.64939851468047E+00
 cg2d: Sum(rhs),rhsMax =   8.31884889862522E-08  8.65440165750237E+00
 cg2d: Sum(rhs),rhsMax =   8.31404634027422E-08  8.65939336077686E+00
 cg2d: Sum(rhs),rhsMax =   8.30926367711982E-08  8.66437365837548E+00
 cg2d: Sum(rhs),rhsMax =   8.30445543442693E-08  8.66934323861903E+00
 cg2d: Sum(rhs),rhsMax =   8.29969906135375E-08  8.67430239437253E+00
 cg2d: Sum(rhs),rhsMax =   8.29495832022076E-08  8.67925493528168E+00
 cg2d: Sum(rhs),rhsMax =   8.33825382073883E-08  8.63432991015313E+00
 cg2d: Sum(rhs),rhsMax =   8.33337523431510E-08  8.63936117085341E+00
 cg2d: Sum(rhs),rhsMax =   8.32852222742986E-08  8.64438459225620E+00
 cg2d: Sum(rhs),rhsMax =   8.32368627357027E-08  8.64939851468047E+00
 cg2d: Sum(rhs),rhsMax =   8.31884889862522E-08  8.65440165750237E+00
 cg2d: Sum(rhs),rhsMax =   8.31404634027422E-08  8.65939336077686E+00
 cg2d: Sum(rhs),rhsMax =   8.30926367711982E-08  8.66437365837548E+00
 cg2d: Sum(rhs),rhsMax =   8.30445543442693E-08  8.66934323861903E+00
 cg2d: Sum(rhs),rhsMax =   8.29969906135375E-08  8.67430239437253E+00
 cg2d: Sum(rhs),rhsMax =  -6.65646417985499E-07  8.67925472435402E+00
 cg2d: Sum(rhs),rhsMax =   1.92290628718420E-13  1.78079643564033E-03
 cg2d: Sum(rhs),rhsMax =   8.33825382073883E-08  8.63432991015313E+00
 cg2d: Sum(rhs),rhsMax =   8.33337523431510E-08  8.63936117085341E+00
 cg2d: Sum(rhs),rhsMax =   8.32852222742986E-08  8.64438459225620E+00
 cg2d: Sum(rhs),rhsMax =   8.32368627357027E-08  8.64939851468047E+00
 cg2d: Sum(rhs),rhsMax =   8.31884889862522E-08  8.65440165750237E+00
 cg2d: Sum(rhs),rhsMax =   8.31404634027422E-08  8.65939336077686E+00
 cg2d: Sum(rhs),rhsMax =   8.30926367711982E-08  8.66437365837548E+00
 cg2d: Sum(rhs),rhsMax =   8.30445543442693E-08  8.66934323861903E+00
 cg2d: Sum(rhs),rhsMax =   4.27899209398674E-08  8.67430271506384E+00
 cg2d: Sum(rhs),rhsMax =   3.56104038745108E-13  1.82806597815034E-03
 cg2d: Sum(rhs),rhsMax =   8.33825382073883E-08  8.63432991015313E+00
 cg2d: Sum(rhs),rhsMax =   8.33337523431510E-08  8.63936117085341E+00
 cg2d: Sum(rhs),rhsMax =   8.32852222742986E-08  8.64438459225620E+00
 cg2d: Sum(rhs),rhsMax =   8.32368627357027E-08  8.64939851468047E+00
 cg2d: Sum(rhs),rhsMax =   8.31884889862522E-08  8.65440165750237E+00
 cg2d: Sum(rhs),rhsMax =   8.31404634027422E-08  8.65939336077686E+00
 cg2d: Sum(rhs),rhsMax =   8.30926367711982E-08  8.66437365837548E+00
 cg2d: Sum(rhs),rhsMax =   5.21206374060057E-07  8.66934340019759E+00
 cg2d: Sum(rhs),rhsMax =   4.57467411806316E-13  1.87275759028561E-03
 cg2d: Sum(rhs),rhsMax =   8.33825382073883E-08  8.63432991015313E+00
 cg2d: Sum(rhs),rhsMax =   8.33337523431510E-08  8.63936117085341E+00
 cg2d: Sum(rhs),rhsMax =   8.32852222742986E-08  8.64438459225620E+00
 cg2d: Sum(rhs),rhsMax =   8.32368627357027E-08  8.64939851468047E+00
 cg2d: Sum(rhs),rhsMax =   8.31884889862522E-08  8.65440165750237E+00
 cg2d: Sum(rhs),rhsMax =   8.31404634027422E-08  8.65939336077686E+00
 cg2d: Sum(rhs),rhsMax =   7.58768564423917E-07  8.66437343665013E+00
 cg2d: Sum(rhs),rhsMax =   6.65911826279335E-13  1.91618111536973E-03
 cg2d: Sum(rhs),rhsMax =   8.33825382073883E-08  8.63432991015313E+00
 cg2d: Sum(rhs),rhsMax =   8.33337523431510E-08  8.63936117085341E+00
 cg2d: Sum(rhs),rhsMax =   8.32852222742986E-08  8.64438459225620E+00
 cg2d: Sum(rhs),rhsMax =   8.32368627357027E-08  8.64939851468047E+00
 cg2d: Sum(rhs),rhsMax =   8.31884889862522E-08  8.65440165750237E+00
 cg2d: Sum(rhs),rhsMax =   1.35797993294773E-06  8.65939328242428E+00
 cg2d: Sum(rhs),rhsMax =   7.21589652305294E-13  2.06690197145869E-03
 cg2d: Sum(rhs),rhsMax =   8.33825382073883E-08  8.63432991015313E+00
 cg2d: Sum(rhs),rhsMax =   8.33337523431510E-08  8.63936117085341E+00
 cg2d: Sum(rhs),rhsMax =   8.32852222742986E-08  8.64438459225620E+00
 cg2d: Sum(rhs),rhsMax =   8.32368627357027E-08  8.64939851468047E+00
 cg2d: Sum(rhs),rhsMax =   5.27324445442900E-07  8.65440157027545E+00
 cg2d: Sum(rhs),rhsMax =   9.11715843268305E-13  2.14093878453436E-03
 cg2d: Sum(rhs),rhsMax =   8.33825382073883E-08  8.63432991015313E+00
 cg2d: Sum(rhs),rhsMax =   8.33337523431510E-08  8.63936117085341E+00
 cg2d: Sum(rhs),rhsMax =   8.32852222742986E-08  8.64438459225620E+00
 cg2d: Sum(rhs),rhsMax =  -1.33786381439904E-06  8.64939845126264E+00
 cg2d: Sum(rhs),rhsMax =   1.00653052398693E-12  2.24468938339039E-03
 cg2d: Sum(rhs),rhsMax =   8.33825382073883E-08  8.63432991015313E+00
 cg2d: Sum(rhs),rhsMax =   8.33337523431510E-08  8.63936117085341E+00
 cg2d: Sum(rhs),rhsMax =   6.17624010601503E-07  8.64438491145519E+00
 cg2d: Sum(rhs),rhsMax =   1.31451212950792E-12  2.19550698546178E-03
 cg2d: Sum(rhs),rhsMax =   8.33825382073883E-08  8.63432991015313E+00
 cg2d: Sum(rhs),rhsMax =   2.01993429982394E-07  8.63936138151316E+00
 cg2d: Sum(rhs),rhsMax =   1.21594054570040E-12  2.38554131746776E-03
 cg2d: Sum(rhs),rhsMax =   8.33826021562345E-08  8.63432991007676E+00
 cg2d: Sum(rhs),rhsMax =   1.17229766795983E-12  2.66828940223249E-03
 cg2d: Sum(rhs),rhsMax =  -2.44783471714527E-07  8.51897418323859E+00
 cg2d: Sum(rhs),rhsMax =  -2.44957739425899E-07  8.51294224856493E+00
 cg2d: Sum(rhs),rhsMax =  -2.45131850817870E-07  8.50690564885983E+00
 cg2d: Sum(rhs),rhsMax =  -2.45306104318388E-07  8.50087010325378E+00
 cg2d: Sum(rhs),rhsMax =  -2.45480840987966E-07  8.49484030788981E+00
 cg2d: Sum(rhs),rhsMax =  -2.45655421338142E-07  8.48882091652209E+00
 cg2d: Sum(rhs),rhsMax =  -2.45829966161182E-07  8.48281648598470E+00
 cg2d: Sum(rhs),rhsMax =  -2.46003693860075E-07  8.47683141604414E+00
 cg2d: Sum(rhs),rhsMax =  -2.46177087603883E-07  8.47086986481543E+00
 cg2d: Sum(rhs),rhsMax =  -2.46350516874827E-07  8.46493565647207E+00
 EXTERNAL_FIELDS_LOAD, it=   3600570 : Reading new data, i0,i1=   10   11 (prev=    9    1 )
 DIC_FIELDS_LOAD, it=   3600570 : Reading new data, i0,i1=   10   11 (prev=    9   10 )
 cg2d: Sum(rhs),rhsMax =  -2.46522958491369E-07  8.45903217397129E+00
 cg2d: Sum(rhs),rhsMax =  -2.46693353744831E-07  8.45319776100662E+00
 cg2d: Sum(rhs),rhsMax =  -2.46861752373206E-07  8.44745780781015E+00
 cg2d: Sum(rhs),rhsMax =  -2.47026463284783E-07  8.44183689308228E+00
 cg2d: Sum(rhs),rhsMax =  -2.47187230684176E-07  8.43635808123200E+00
 cg2d: Sum(rhs),rhsMax =  -2.47343706405445E-07  8.43104233122613E+00
 cg2d: Sum(rhs),rhsMax =  -2.47495002270171E-07  8.42590806033104E+00
 cg2d: Sum(rhs),rhsMax =  -2.47640862482967E-07  8.42097079337588E+00
 cg2d: Sum(rhs),rhsMax =  -2.47780199913450E-07  8.41624287670950E+00
 cg2d: Sum(rhs),rhsMax =  -2.47913433781832E-07  8.41173327531019E+00
 cg2d: Sum(rhs),rhsMax =  -2.48040628036961E-07  8.40744751803125E+00
 cg2d: Sum(rhs),rhsMax =  -2.48160993976398E-07  8.40338776690083E+00
 cg2d: Sum(rhs),rhsMax =  -2.48274659497838E-07  8.39955295260282E+00
 cg2d: Sum(rhs),rhsMax =  -2.48382001188929E-07  8.39593904397255E+00
 cg2d: Sum(rhs),rhsMax =  -2.48483310372194E-07  8.39253935780259E+00
 cg2d: Sum(rhs),rhsMax =  -2.48578452044512E-07  8.38934486115791E+00
 cg2d: Sum(rhs),rhsMax =  -2.48667660684987E-07  8.38634455564178E+00
 cg2d: Sum(rhs),rhsMax =  -2.48751881315457E-07  8.38352593271183E+00
 cg2d: Sum(rhs),rhsMax =  -2.48830964721947E-07  8.38087545512510E+00
 cg2d: Sum(rhs),rhsMax =  -2.48905820399159E-07  8.37837910210342E+00
 cg2d: Sum(rhs),rhsMax =  -2.48976242289700E-07  8.37602295704436E+00
 cg2d: Sum(rhs),rhsMax =  -2.49042699351776E-07  8.37379380797618E+00
 cg2d: Sum(rhs),rhsMax =  -2.49106562932866E-07  8.37167959361354E+00
 cg2d: Sum(rhs),rhsMax =  -2.49166241417242E-07  8.36966926830838E+00
 cg2d: Sum(rhs),rhsMax =  -2.49223795378839E-07  8.36775333408158E+00
 cg2d: Sum(rhs),rhsMax =  -2.49279089814536E-07  8.36592380342866E+00
 cg2d: Sum(rhs),rhsMax =  -2.49331364443606E-07  8.36417416133343E+00
 cg2d: Sum(rhs),rhsMax =  -2.49381677974725E-07  8.36249928728285E+00
 cg2d: Sum(rhs),rhsMax =  -2.49429696452808E-07  8.36089538401903E+00
 cg2d: Sum(rhs),rhsMax =  -2.49476237002000E-07  8.35935991281295E+00
 cg2d: Sum(rhs),rhsMax =  -2.49520162753925E-07  8.35789146030961E+00
 cg2d: Sum(rhs),rhsMax =  -2.49562525311831E-07  8.35648964985200E+00
 cg2d: Sum(rhs),rhsMax =  -2.49602841506658E-07  8.35515513914879E+00
 cg2d: Sum(rhs),rhsMax =  -2.49640748961610E-07  8.35388971117527E+00
 cg2d: Sum(rhs),rhsMax =  -2.49676844532587E-07  8.35269628610801E+00
 cg2d: Sum(rhs),rhsMax =  -2.49710517152835E-07  8.35157887088272E+00
 cg2d: Sum(rhs),rhsMax =  -2.49741731295217E-07  8.35054250509572E+00
 cg2d: Sum(rhs),rhsMax =  -2.49770394589177E-07  8.34959323059716E+00
 cg2d: Sum(rhs),rhsMax =  -2.49796435980443E-07  8.34873810769870E+00
 cg2d: Sum(rhs),rhsMax =  -2.49819045450295E-07  8.34798512227025E+00
 cg2d: Sum(rhs),rhsMax =  -2.49838244315015E-07  8.34734290261435E+00
 cg2d: Sum(rhs),rhsMax =  -2.49853975731185E-07  8.34682030367283E+00
 cg2d: Sum(rhs),rhsMax =  -2.49866459967052E-07  8.34642602050246E+00
 cg2d: Sum(rhs),rhsMax =  -2.49874005930906E-07  8.34616833018179E+00
 cg2d: Sum(rhs),rhsMax =  -2.49877167846080E-07  8.34605492416921E+00
 cg2d: Sum(rhs),rhsMax =  -2.49876372038216E-07  8.34609271647880E+00
 cg2d: Sum(rhs),rhsMax =  -2.49870495849791E-07  8.34628766951383E+00
 cg2d: Sum(rhs),rhsMax =  -2.49859972711874E-07  8.34664465917166E+00
 cg2d: Sum(rhs),rhsMax =  -2.49844404720534E-07  8.34716735659488E+00
 cg2d: Sum(rhs),rhsMax =  -2.49823550291239E-07  8.34785810988885E+00
 cg2d: Sum(rhs),rhsMax =  -2.49798063123308E-07  8.34871787621402E+00
 cg2d: Sum(rhs),rhsMax =  -2.49766976878618E-07  8.34974617920463E+00
 cg2d: Sum(rhs),rhsMax =  -2.49731257895291E-07  8.35094113608330E+00
 cg2d: Sum(rhs),rhsMax =  -2.49690643272515E-07  8.35229948619608E+00
 cg2d: Sum(rhs),rhsMax =  -2.49645175642854E-07  8.35381675511217E+00
 cg2d: Sum(rhs),rhsMax =  -2.49595025536564E-07  8.35548736188202E+00
 cg2d: Sum(rhs),rhsMax =  -2.49540875074672E-07  8.35730476743729E+00
 cg2d: Sum(rhs),rhsMax =  -2.49482035030724E-07  8.35926164070414E+00
 cg2d: Sum(rhs),rhsMax =  -2.49419819908780E-07  8.36135002375845E+00
 cg2d: Sum(rhs),rhsMax =  -2.49353568904098E-07  8.36356151790629E+00
 EXTERNAL_FIELDS_LOAD, it=   3600630 : Reading new data, i0,i1=   11   12 (prev=   10   11 )
 DIC_FIELDS_LOAD, it=   3600630 : Reading new data, i0,i1=   11   12 (prev=   10   11 )
 cg2d: Sum(rhs),rhsMax =  -2.49283999664840E-07  8.36588746134833E+00
 cg2d: Sum(rhs),rhsMax =  -2.49212149583400E-07  8.36830171267966E+00
 cg2d: Sum(rhs),rhsMax =  -2.49137990238069E-07  8.37078382670868E+00
 cg2d: Sum(rhs),rhsMax =  -2.49062694024360E-07  8.37331347128018E+00
 cg2d: Sum(rhs),rhsMax =  -2.48986417261676E-07  8.37587083487809E+00
 cg2d: Sum(rhs),rhsMax =  -2.48910055233864E-07  8.37843890797547E+00
 cg2d: Sum(rhs),rhsMax =  -2.48833615046351E-07  8.38100282447941E+00
 cg2d: Sum(rhs),rhsMax =  -2.48757785925591E-07  8.38355008718710E+00
 cg2d: Sum(rhs),rhsMax =  -2.48682930248378E-07  8.38607101327765E+00
 cg2d: Sum(rhs),rhsMax =  -2.48608408526252E-07  8.38855886249661E+00
 cg2d: Sum(rhs),rhsMax =  -2.48536004221478E-07  8.39100987040112E+00
 cg2d: Sum(rhs),rhsMax =  -2.48464210983457E-07  8.39342320470582E+00
 cg2d: Sum(rhs),rhsMax =  -2.48393547508385E-07  8.39580086228628E+00
 cg2d: Sum(rhs),rhsMax =  -2.48323665630323E-07  8.39814747768731E+00
 cg2d: Sum(rhs),rhsMax =  -2.48254892198929E-07  8.40047003473604E+00
 cg2d: Sum(rhs),rhsMax =  -2.48186310614074E-07  8.40277751423481E+00
 cg2d: Sum(rhs),rhsMax =  -2.48117892454047E-07  8.40508048455822E+00
 cg2d: Sum(rhs),rhsMax =  -2.48049687456842E-07  8.40739063604165E+00
 cg2d: Sum(rhs),rhsMax =  -2.47980871392883E-07  8.40972032300375E+00
 cg2d: Sum(rhs),rhsMax =  -2.47910648454308E-07  8.41208213189281E+00
 cg2d: Sum(rhs),rhsMax =  -2.47839537337313E-07  8.41448816606350E+00
 cg2d: Sum(rhs),rhsMax =  -2.47766863026300E-07  8.41694970128980E+00
 cg2d: Sum(rhs),rhsMax =  -2.47691964716523E-07  8.41947813091076E+00
 cg2d: Sum(rhs),rhsMax =  -2.47614714510291E-07  8.42209648974696E+00
 cg2d: Sum(rhs),rhsMax =  -2.47534813979655E-07  8.42482035527151E+00
 cg2d: Sum(rhs),rhsMax =  -2.47451126256237E-07  8.42766351995909E+00
 cg2d: Sum(rhs),rhsMax =  -2.47363992400551E-07  8.43063783312212E+00
 cg2d: Sum(rhs),rhsMax =  -2.47272517128749E-07  8.43375283121391E+00
 cg2d: Sum(rhs),rhsMax =  -2.47176934919935E-07  8.43701559654336E+00
 cg2d: Sum(rhs),rhsMax =  -2.47076883397312E-07  8.44043066353450E+00
 cg2d: Sum(rhs),rhsMax =  -2.46972234663190E-07  8.44400002260639E+00
 cg2d: Sum(rhs),rhsMax =  -2.46863251618379E-07  8.44772316054511E+00
 cg2d: Sum(rhs),rhsMax =  -2.46750062160572E-07  8.45159719138741E+00
 cg2d: Sum(rhs),rhsMax =  -2.46632367861821E-07  8.45561701011588E+00
 cg2d: Sum(rhs),rhsMax =  -2.46511149271100E-07  8.45977551282957E+00
 cg2d: Sum(rhs),rhsMax =  -2.46386285596145E-07  8.46406373659226E+00
 cg2d: Sum(rhs),rhsMax =  -2.46257769731528E-07  8.46847122879392E+00
 cg2d: Sum(rhs),rhsMax =  -2.46126411695968E-07  8.47298635145432E+00
 cg2d: Sum(rhs),rhsMax =  -2.45992481495705E-07  8.47759653567383E+00
 cg2d: Sum(rhs),rhsMax =  -2.45856256242405E-07  8.48228855871733E+00
 cg2d: Sum(rhs),rhsMax =  -2.45718460689659E-07  8.48704884333580E+00
 cg2d: Sum(rhs),rhsMax =  -2.45578725355244E-07  8.49186380279765E+00
 cg2d: Sum(rhs),rhsMax =  -2.45438343426940E-07  8.49672023122521E+00
 cg2d: Sum(rhs),rhsMax =  -2.45297442802439E-07  8.50160566769727E+00
 cg2d: Sum(rhs),rhsMax =  -2.45155710842937E-07  8.50650876168224E+00
 cg2d: Sum(rhs),rhsMax =  -2.45014355471085E-07  8.51141938832254E+00
 cg2d: Sum(rhs),rhsMax =  -2.44872978782951E-07  8.51632882603140E+00
 cg2d: Sum(rhs),rhsMax =  -2.44732156318150E-07  8.52122992574505E+00
 cg2d: Sum(rhs),rhsMax =  -2.44592122555787E-07  8.52611725421215E+00
 cg2d: Sum(rhs),rhsMax =  -2.44452138531415E-07  8.53098720300080E+00
 cg2d: Sum(rhs),rhsMax =  -2.44313056896317E-07  8.53583804386303E+00
 cg2d: Sum(rhs),rhsMax =  -2.44175289765280E-07  8.54066993807463E+00
 cg2d: Sum(rhs),rhsMax =  -2.44037558161381E-07  8.54548489389639E+00
 cg2d: Sum(rhs),rhsMax =  -2.43900487362225E-07  8.55028665503631E+00
 cg2d: Sum(rhs),rhsMax =  -2.43763828677857E-07  8.55508055409759E+00
 cg2d: Sum(rhs),rhsMax =  -2.43627631846266E-07  8.55987334584090E+00
 cg2d: Sum(rhs),rhsMax =  -2.43490916318478E-07  8.56467304589797E+00
 cg2d: Sum(rhs),rhsMax =  -2.43354129736417E-07  8.56948875081293E+00
 cg2d: Sum(rhs),rhsMax =  -2.43216923934142E-07  8.57433041210705E+00
 cg2d: Sum(rhs),rhsMax =  -2.43078602579772E-07  8.57920857075689E+00
 EXTERNAL_FIELDS_LOAD, it=   3600690 : Reading new data, i0,i1=   12    1 (prev=   11   12 )
 DIC_FIELDS_LOAD, it=   3600690 : Reading new data, i0,i1=   12    1 (prev=   11   12 )
 cg2d: Sum(rhs),rhsMax =  -8.17161115662657E-07  8.58413406575868E+00
 cg2d: Sum(rhs),rhsMax =  -8.16689471605514E-07  8.58909115177133E+00
 cg2d: Sum(rhs),rhsMax =  -8.16216129351233E-07  8.59407437536525E+00
 cg2d: Sum(rhs),rhsMax =  -8.15741159954086E-07  8.59907839855116E+00
 cg2d: Sum(rhs),rhsMax =  -8.15265416065358E-07  8.60409820816595E+00
 cg2d: Sum(rhs),rhsMax =  -8.14789295588980E-07  8.60912923812460E+00
 cg2d: Sum(rhs),rhsMax =  -8.14312649310978E-07  8.61416747041897E+00
 cg2d: Sum(rhs),rhsMax =  -8.13836429358616E-07  8.61920947542678E+00
 cg2d: Sum(rhs),rhsMax =  -8.13360905738136E-07  8.62425235895730E+00
 cg2d: Sum(rhs),rhsMax =  -8.12885922130135E-07  8.62929362035035E+00
 EXTERNAL_FIELDS_LOAD, it=   3600690 : Reading new data, i0,i1=   12    1 (prev=   11    1 )
 DIC_FIELDS_LOAD, it=   3600690 : Reading new data, i0,i1=   12    1 (prev=   11   12 )
 cg2d: Sum(rhs),rhsMax =  -8.17161115662657E-07  8.58413406575868E+00
 cg2d: Sum(rhs),rhsMax =  -8.16689471605514E-07  8.58909115177133E+00
 cg2d: Sum(rhs),rhsMax =  -8.16216129351233E-07  8.59407437536525E+00
 cg2d: Sum(rhs),rhsMax =  -8.15741159954086E-07  8.59907839855116E+00
 cg2d: Sum(rhs),rhsMax =  -8.15265416065358E-07  8.60409820816595E+00
 cg2d: Sum(rhs),rhsMax =  -8.14789295588980E-07  8.60912923812460E+00
 cg2d: Sum(rhs),rhsMax =  -8.14312649310978E-07  8.61416747041897E+00
 cg2d: Sum(rhs),rhsMax =  -8.13836429358616E-07  8.61920947542678E+00
 cg2d: Sum(rhs),rhsMax =  -8.13360905738136E-07  8.62425235895730E+00
 cg2d: Sum(rhs),rhsMax =  -1.32860976975735E-06  8.62929354306146E+00
 cg2d: Sum(rhs),rhsMax =   1.10609457683482E-12  2.78670114155306E-03
 EXTERNAL_FIELDS_LOAD, it=   3600690 : Reading new data, i0,i1=   12    1 (prev=   11    1 )
 DIC_FIELDS_LOAD, it=   3600690 : Reading new data, i0,i1=   12    1 (prev=   11   12 )
 cg2d: Sum(rhs),rhsMax =  -8.17161115662657E-07  8.58413406575868E+00
 cg2d: Sum(rhs),rhsMax =  -8.16689471605514E-07  8.58909115177133E+00
 cg2d: Sum(rhs),rhsMax =  -8.16216129351233E-07  8.59407437536525E+00
 cg2d: Sum(rhs),rhsMax =  -8.15741159954086E-07  8.59907839855116E+00
 cg2d: Sum(rhs),rhsMax =  -8.15265416065358E-07  8.60409820816595E+00
 cg2d: Sum(rhs),rhsMax =  -8.14789295588980E-07  8.60912923812460E+00
 cg2d: Sum(rhs),rhsMax =  -8.14312649310978E-07  8.61416747041897E+00
 cg2d: Sum(rhs),rhsMax =  -8.13836429358616E-07  8.61920947542678E+00
 cg2d: Sum(rhs),rhsMax =  -1.15411179990588E-06  8.62425237215627E+00
 cg2d: Sum(rhs),rhsMax =   1.14167860872295E-12  2.81771961800659E-03
 EXTERNAL_FIELDS_LOAD, it=   3600690 : Reading new data, i0,i1=   12    1 (prev=   11    1 )
 DIC_FIELDS_LOAD, it=   3600690 : Reading new data, i0,i1=   12    1 (prev=   11   12 )
 cg2d: Sum(rhs),rhsMax =  -8.17161115662657E-07  8.58413406575868E+00
 cg2d: Sum(rhs),rhsMax =  -8.16689471605514E-07  8.58909115177133E+00
 cg2d: Sum(rhs),rhsMax =  -8.16216129351233E-07  8.59407437536525E+00
 cg2d: Sum(rhs),rhsMax =  -8.15741159954086E-07  8.59907839855116E+00
 cg2d: Sum(rhs),rhsMax =  -8.15265416065358E-07  8.60409820816595E+00
 cg2d: Sum(rhs),rhsMax =  -8.14789295588980E-07  8.60912923812460E+00
 cg2d: Sum(rhs),rhsMax =  -8.14312649310978E-07  8.61416747041897E+00
 cg2d: Sum(rhs),rhsMax =   4.28364316462648E-07  8.61920928599558E+00
 cg2d: Sum(rhs),rhsMax =   1.20611737930827E-12  2.83733824421204E-03
 EXTERNAL_FIELDS_LOAD, it=   3600690 : Reading new data, i0,i1=   12    1 (prev=   11    1 )
 DIC_FIELDS_LOAD, it=   3600690 : Reading new data, i0,i1=   12    1 (prev=   11   12 )
 cg2d: Sum(rhs),rhsMax =  -8.17161115662657E-07  8.58413406575868E+00
 cg2d: Sum(rhs),rhsMax =  -8.16689471605514E-07  8.58909115177133E+00
 cg2d: Sum(rhs),rhsMax =  -8.16216129351233E-07  8.59407437536525E+00
 cg2d: Sum(rhs),rhsMax =  -8.15741159954086E-07  8.59907839855116E+00
 cg2d: Sum(rhs),rhsMax =  -8.15265416065358E-07  8.60409820816595E+00
 cg2d: Sum(rhs),rhsMax =  -8.14789295588980E-07  8.60912923812460E+00
 cg2d: Sum(rhs),rhsMax =   4.16433607597355E-07  8.61416765150745E+00
 cg2d: Sum(rhs),rhsMax =   1.31342999256807E-12  2.89311910070069E-03
 EXTERNAL_FIELDS_LOAD, it=   3600690 : Reading new data, i0,i1=   12    1 (prev=   11    1 )
 DIC_FIELDS_LOAD, it=   3600690 : Reading new data, i0,i1=   12    1 (prev=   11   12 )
 cg2d: Sum(rhs),rhsMax =  -8.17161115662657E-07  8.58413406575868E+00
 cg2d: Sum(rhs),rhsMax =  -8.16689471605514E-07  8.58909115177133E+00
 cg2d: Sum(rhs),rhsMax =  -8.16216129351233E-07  8.59407437536525E+00
 cg2d: Sum(rhs),rhsMax =  -8.15741159954086E-07  8.59907839855116E+00
 cg2d: Sum(rhs),rhsMax =  -8.15265416065358E-07  8.60409820816595E+00
 cg2d: Sum(rhs),rhsMax =  -1.13519264033357E-06  8.60912922339369E+00
 cg2d: Sum(rhs),rhsMax =   1.28642312999388E-12  2.97792883132809E-03
 EXTERNAL_FIELDS_LOAD, it=   3600690 : Reading new data, i0,i1=   12    1 (prev=   11    1 )
 DIC_FIELDS_LOAD, it=   3600690 : Reading new data, i0,i1=   12    1 (prev=   11   12 )
 cg2d: Sum(rhs),rhsMax =  -8.17161115662657E-07  8.58413406575868E+00
 cg2d: Sum(rhs),rhsMax =  -8.16689471605514E-07  8.58909115177133E+00
 cg2d: Sum(rhs),rhsMax =  -8.16216129351233E-07  8.59407437536525E+00
 cg2d: Sum(rhs),rhsMax =  -8.15741159954086E-07  8.59907839855116E+00
 cg2d: Sum(rhs),rhsMax =  -6.98623978223623E-07  8.60409806090387E+00
 cg2d: Sum(rhs),rhsMax =   1.27507556378659E-12  3.06100967550425E-03
 EXTERNAL_FIELDS_LOAD, it=   3600690 : Reading new data, i0,i1=   12    1 (prev=   11    1 )
 DIC_FIELDS_LOAD, it=   3600690 : Reading new data, i0,i1=   12    1 (prev=   11   12 )
 cg2d: Sum(rhs),rhsMax =  -8.17161115662657E-07  8.58413406575868E+00
 cg2d: Sum(rhs),rhsMax =  -8.16689471605514E-07  8.58909115177133E+00
 cg2d: Sum(rhs),rhsMax =  -8.16216129351233E-07  8.59407437536525E+00
 cg2d: Sum(rhs),rhsMax =   9.17920601750666E-08  8.59907830096773E+00
 cg2d: Sum(rhs),rhsMax =   1.19769150215714E-12  3.12445691089530E-03
 EXTERNAL_FIELDS_LOAD, it=   3600690 : Reading new data, i0,i1=   12    1 (prev=   11    1 )
 DIC_FIELDS_LOAD, it=   3600690 : Reading new data, i0,i1=   12    1 (prev=   11   12 )
 cg2d: Sum(rhs),rhsMax =  -8.17161115662657E-07  8.58413406575868E+00
 cg2d: Sum(rhs),rhsMax =  -8.16689471605514E-07  8.58909115177133E+00
 cg2d: Sum(rhs),rhsMax =  -1.03204694568149E-06  8.59407416698988E+00
 cg2d: Sum(rhs),rhsMax =   1.25457708383719E-12  3.19915763653838E-03
 EXTERNAL_FIELDS_LOAD, it=   3600690 : Reading new data, i0,i1=   12    1 (prev=   11    1 )
 DIC_FIELDS_LOAD, it=   3600690 : Reading new data, i0,i1=   12    1 (prev=   11   12 )
 cg2d: Sum(rhs),rhsMax =  -8.17161115662657E-07  8.58413406575868E+00
 cg2d: Sum(rhs),rhsMax =   5.50119459319376E-07  8.58909152487596E+00
 cg2d: Sum(rhs),rhsMax =   1.20309427407606E-12  3.29338315059915E-03
 EXTERNAL_FIELDS_LOAD, it=   3600690 : Reading new data, i0,i1=   12    1 (prev=   11    1 )
 DIC_FIELDS_LOAD, it=   3600690 : Reading new data, i0,i1=   12    1 (prev=   11   12 )
 cg2d: Sum(rhs),rhsMax =  -8.17160767496716E-07  8.58413406538761E+00
 cg2d: Sum(rhs),rhsMax =   1.29044292638771E-12  3.39879791644153E-03
 cg2d: Sum(rhs),rhsMax =  -2.44783471714527E-07  8.51897418323859E+00
 cg2d: Sum(rhs),rhsMax =  -2.44957739425899E-07  8.51294224856493E+00
 cg2d: Sum(rhs),rhsMax =  -2.45131850817870E-07  8.50690564885983E+00
 cg2d: Sum(rhs),rhsMax =  -2.45306104318388E-07  8.50087010325378E+00
 cg2d: Sum(rhs),rhsMax =  -2.45480840987966E-07  8.49484030788981E+00
 cg2d: Sum(rhs),rhsMax =  -2.45655421338142E-07  8.48882091652209E+00
 cg2d: Sum(rhs),rhsMax =  -2.45829966161182E-07  8.48281648598470E+00
 cg2d: Sum(rhs),rhsMax =  -2.46003693860075E-07  8.47683141604414E+00
 cg2d: Sum(rhs),rhsMax =  -2.46177087603883E-07  8.47086986481543E+00
 cg2d: Sum(rhs),rhsMax =  -2.46350516874827E-07  8.46493565647207E+00
 EXTERNAL_FIELDS_LOAD, it=   3600570 : Reading new data, i0,i1=   10   11 (prev=    9    1 )
 DIC_FIELDS_LOAD, it=   3600570 : Reading new data, i0,i1=   10   11 (prev=    9   10 )
 cg2d: Sum(rhs),rhsMax =  -2.46522958491369E-07  8.45903217397129E+00
 cg2d: Sum(rhs),rhsMax =  -2.46693353744831E-07  8.45319776100662E+00
 cg2d: Sum(rhs),rhsMax =  -2.46861752373206E-07  8.44745780781015E+00
 cg2d: Sum(rhs),rhsMax =  -2.47026463284783E-07  8.44183689308228E+00
 cg2d: Sum(rhs),rhsMax =  -2.47187230684176E-07  8.43635808123200E+00
 cg2d: Sum(rhs),rhsMax =  -2.47343706405445E-07  8.43104233122613E+00
 cg2d: Sum(rhs),rhsMax =  -2.47495002270171E-07  8.42590806033104E+00
 cg2d: Sum(rhs),rhsMax =  -2.47640862482967E-07  8.42097079337588E+00
 cg2d: Sum(rhs),rhsMax =  -2.47780199913450E-07  8.41624287670950E+00
 cg2d: Sum(rhs),rhsMax =  -2.47913433781832E-07  8.41173327531019E+00
 cg2d: Sum(rhs),rhsMax =  -2.48040628036961E-07  8.40744751803125E+00
 cg2d: Sum(rhs),rhsMax =  -2.48160993976398E-07  8.40338776690083E+00
 cg2d: Sum(rhs),rhsMax =  -2.48274659497838E-07  8.39955295260282E+00
 cg2d: Sum(rhs),rhsMax =  -2.48382001188929E-07  8.39593904397255E+00
 cg2d: Sum(rhs),rhsMax =  -2.48483310372194E-07  8.39253935780259E+00
 cg2d: Sum(rhs),rhsMax =  -2.48578452044512E-07  8.38934486115791E+00
 cg2d: Sum(rhs),rhsMax =  -2.48667660684987E-07  8.38634455564178E+00
 cg2d: Sum(rhs),rhsMax =  -2.48751881315457E-07  8.38352593271183E+00
 cg2d: Sum(rhs),rhsMax =  -2.48830964721947E-07  8.38087545512510E+00
 cg2d: Sum(rhs),rhsMax =  -2.48905820399159E-07  8.37837910210342E+00
 cg2d: Sum(rhs),rhsMax =  -2.48976242289700E-07  8.37602295704436E+00
 cg2d: Sum(rhs),rhsMax =  -2.49042699351776E-07  8.37379380797618E+00
 cg2d: Sum(rhs),rhsMax =  -2.49106562932866E-07  8.37167959361354E+00
 cg2d: Sum(rhs),rhsMax =  -2.49166241417242E-07  8.36966926830838E+00
 cg2d: Sum(rhs),rhsMax =  -2.49223795378839E-07  8.36775333408158E+00
 cg2d: Sum(rhs),rhsMax =  -2.49279089814536E-07  8.36592380342866E+00
 cg2d: Sum(rhs),rhsMax =  -2.49331364443606E-07  8.36417416133343E+00
 cg2d: Sum(rhs),rhsMax =  -2.49381677974725E-07  8.36249928728285E+00
 cg2d: Sum(rhs),rhsMax =  -2.49429696452808E-07  8.36089538401903E+00
 cg2d: Sum(rhs),rhsMax =  -2.49476237002000E-07  8.35935991281295E+00
 cg2d: Sum(rhs),rhsMax =  -2.49520162753925E-07  8.35789146030961E+00
 cg2d: Sum(rhs),rhsMax =  -2.49562525311831E-07  8.35648964985200E+00
 cg2d: Sum(rhs),rhsMax =  -2.49602841506658E-07  8.35515513914879E+00
 cg2d: Sum(rhs),rhsMax =  -2.49640748961610E-07  8.35388971117527E+00
 cg2d: Sum(rhs),rhsMax =  -2.49676844532587E-07  8.35269628610801E+00
 cg2d: Sum(rhs),rhsMax =  -2.49710517152835E-07  8.35157887088272E+00
 cg2d: Sum(rhs),rhsMax =  -2.49741731295217E-07  8.35054250509572E+00
 cg2d: Sum(rhs),rhsMax =  -2.49770394589177E-07  8.34959323059716E+00
 cg2d: Sum(rhs),rhsMax =  -2.49796435980443E-07  8.34873810769870E+00
 cg2d: Sum(rhs),rhsMax =  -2.49819045450295E-07  8.34798512227025E+00
 cg2d: Sum(rhs),rhsMax =  -2.49838244315015E-07  8.34734290261435E+00
 cg2d: Sum(rhs),rhsMax =  -2.49853975731185E-07  8.34682030367283E+00
 cg2d: Sum(rhs),rhsMax =  -2.49866459967052E-07  8.34642602050246E+00
 cg2d: Sum(rhs),rhsMax =  -2.49874005930906E-07  8.34616833018179E+00
 cg2d: Sum(rhs),rhsMax =  -2.49877167846080E-07  8.34605492416921E+00
 cg2d: Sum(rhs),rhsMax =  -2.49876372038216E-07  8.34609271647880E+00
 cg2d: Sum(rhs),rhsMax =  -2.49870495849791E-07  8.34628766951383E+00
 cg2d: Sum(rhs),rhsMax =  -2.49859972711874E-07  8.34664465917166E+00
 cg2d: Sum(rhs),rhsMax =  -2.49844404720534E-07  8.34716735659488E+00
 cg2d: Sum(rhs),rhsMax =  -2.49823550291239E-07  8.34785810988885E+00
 cg2d: Sum(rhs),rhsMax =  -2.49798063123308E-07  8.34871787621402E+00
 cg2d: Sum(rhs),rhsMax =  -2.49766976878618E-07  8.34974617920463E+00
 cg2d: Sum(rhs),rhsMax =  -2.49731257895291E-07  8.35094113608330E+00
 cg2d: Sum(rhs),rhsMax =  -2.49690643272515E-07  8.35229948619608E+00
 cg2d: Sum(rhs),rhsMax =  -2.49645175642854E-07  8.35381675511217E+00
 cg2d: Sum(rhs),rhsMax =  -2.49595025536564E-07  8.35548736188202E+00
 cg2d: Sum(rhs),rhsMax =  -2.49540875074672E-07  8.35730476743729E+00
 cg2d: Sum(rhs),rhsMax =  -2.49482035030724E-07  8.35926164070414E+00
 cg2d: Sum(rhs),rhsMax =  -2.49419819908780E-07  8.36135002375845E+00
 cg2d: Sum(rhs),rhsMax =  -2.49353568904098E-07  8.36356151790629E+00
 EXTERNAL_FIELDS_LOAD, it=   3600630 : Reading new data, i0,i1=   11   12 (prev=   10   11 )
 DIC_FIELDS_LOAD, it=   3600630 : Reading new data, i0,i1=   11   12 (prev=   10   11 )
 cg2d: Sum(rhs),rhsMax =  -2.49283999664840E-07  8.36588746134833E+00
 cg2d: Sum(rhs),rhsMax =  -2.49212149583400E-07  8.36830171267966E+00
 cg2d: Sum(rhs),rhsMax =  -2.49137990238069E-07  8.37078382670868E+00
 cg2d: Sum(rhs),rhsMax =  -2.49062694024360E-07  8.37331347128018E+00
 cg2d: Sum(rhs),rhsMax =  -2.48986417261676E-07  8.37587083487809E+00
 cg2d: Sum(rhs),rhsMax =  -2.48910055233864E-07  8.37843890797547E+00
 cg2d: Sum(rhs),rhsMax =  -2.48833615046351E-07  8.38100282447941E+00
 cg2d: Sum(rhs),rhsMax =  -2.48757785925591E-07  8.38355008718710E+00
 cg2d: Sum(rhs),rhsMax =  -2.48682930248378E-07  8.38607101327765E+00
 cg2d: Sum(rhs),rhsMax =  -2.48608408526252E-07  8.38855886249661E+00
 cg2d: Sum(rhs),rhsMax =  -2.48536004221478E-07  8.39100987040112E+00
 cg2d: Sum(rhs),rhsMax =  -2.48464210983457E-07  8.39342320470582E+00
 cg2d: Sum(rhs),rhsMax =  -2.48393547508385E-07  8.39580086228628E+00
 cg2d: Sum(rhs),rhsMax =  -2.48323665630323E-07  8.39814747768731E+00
 cg2d: Sum(rhs),rhsMax =  -2.48254892198929E-07  8.40047003473604E+00
 cg2d: Sum(rhs),rhsMax =  -2.48186310614074E-07  8.40277751423481E+00
 cg2d: Sum(rhs),rhsMax =  -2.48117892454047E-07  8.40508048455822E+00
 cg2d: Sum(rhs),rhsMax =  -2.48049687456842E-07  8.40739063604165E+00
 cg2d: Sum(rhs),rhsMax =  -2.47980871392883E-07  8.40972032300375E+00
 cg2d: Sum(rhs),rhsMax =  -2.47910648454308E-07  8.41208213189281E+00
 cg2d: Sum(rhs),rhsMax =  -2.47839537337313E-07  8.41448816606350E+00
 cg2d: Sum(rhs),rhsMax =  -2.47766863026300E-07  8.41694970128980E+00
 cg2d: Sum(rhs),rhsMax =  -2.47691964716523E-07  8.41947813091076E+00
 cg2d: Sum(rhs),rhsMax =  -2.47614714510291E-07  8.42209648974696E+00
 cg2d: Sum(rhs),rhsMax =  -2.47534813979655E-07  8.42482035527151E+00
 cg2d: Sum(rhs),rhsMax =  -2.47451126256237E-07  8.42766351995909E+00
 cg2d: Sum(rhs),rhsMax =  -2.47363992400551E-07  8.43063783312212E+00
 cg2d: Sum(rhs),rhsMax =  -2.47272517128749E-07  8.43375283121391E+00
 cg2d: Sum(rhs),rhsMax =  -2.47176934919935E-07  8.43701559654336E+00
 cg2d: Sum(rhs),rhsMax =  -2.47076883397312E-07  8.44043066353450E+00
 cg2d: Sum(rhs),rhsMax =  -2.46972234663190E-07  8.44400002260639E+00
 cg2d: Sum(rhs),rhsMax =  -2.46863251618379E-07  8.44772316054511E+00
 cg2d: Sum(rhs),rhsMax =  -2.46750062160572E-07  8.45159719138741E+00
 cg2d: Sum(rhs),rhsMax =  -2.46632367861821E-07  8.45561701011588E+00
 cg2d: Sum(rhs),rhsMax =  -2.46511149271100E-07  8.45977551282957E+00
 cg2d: Sum(rhs),rhsMax =  -2.46386285596145E-07  8.46406373659226E+00
 cg2d: Sum(rhs),rhsMax =  -2.46257769731528E-07  8.46847122879392E+00
 cg2d: Sum(rhs),rhsMax =  -2.46126411695968E-07  8.47298635145432E+00
 cg2d: Sum(rhs),rhsMax =  -2.45992481495705E-07  8.47759653567383E+00
 cg2d: Sum(rhs),rhsMax =  -2.45856256242405E-07  8.48228855871733E+00
 cg2d: Sum(rhs),rhsMax =  -2.45718460689659E-07  8.48704884333580E+00
 cg2d: Sum(rhs),rhsMax =  -2.45578725355244E-07  8.49186380279765E+00
 cg2d: Sum(rhs),rhsMax =  -2.45438343426940E-07  8.49672023122521E+00
 cg2d: Sum(rhs),rhsMax =  -2.45297442802439E-07  8.50160566769727E+00
 cg2d: Sum(rhs),rhsMax =  -2.45155710842937E-07  8.50650876168224E+00
 cg2d: Sum(rhs),rhsMax =  -2.45014355471085E-07  8.51141938832254E+00
 cg2d: Sum(rhs),rhsMax =  -2.44872978782951E-07  8.51632882603140E+00
 cg2d: Sum(rhs),rhsMax =  -2.44732156318150E-07  8.52122992574505E+00
 cg2d: Sum(rhs),rhsMax =  -2.44592122555787E-07  8.52611725421215E+00
 cg2d: Sum(rhs),rhsMax =  -2.44452138531415E-07  8.53098720300080E+00
 cg2d: Sum(rhs),rhsMax =   6.93084885483586E-07  8.53583840284423E+00
 cg2d: Sum(rhs),rhsMax =   6.92692196935241E-07  8.54067028240892E+00
 cg2d: Sum(rhs),rhsMax =   6.92302421612112E-07  8.54548520573161E+00
 cg2d: Sum(rhs),rhsMax =   6.91913299988300E-07  8.55028691209073E+00
 cg2d: Sum(rhs),rhsMax =   6.91525571028251E-07  8.55508073325747E+00
 cg2d: Sum(rhs),rhsMax =   6.91138204444997E-07  8.55987342448712E+00
 cg2d: Sum(rhs),rhsMax =   6.90751043919136E-07  8.56467300133517E+00
 cg2d: Sum(rhs),rhsMax =   6.90363044952846E-07  8.56948855964188E+00
 cg2d: Sum(rhs),rhsMax =   6.89972907252923E-07  8.57433005100301E+00
 cg2d: Sum(rhs),rhsMax =   6.89580616608509E-07  8.57920801884635E+00
 cg2d: Sum(rhs),rhsMax =   6.93084885483586E-07  8.53583840284423E+00
 cg2d: Sum(rhs),rhsMax =   6.92692196935241E-07  8.54067028240892E+00
 cg2d: Sum(rhs),rhsMax =   6.92302421612112E-07  8.54548520573161E+00
 cg2d: Sum(rhs),rhsMax =   6.91913299988300E-07  8.55028691209073E+00
 cg2d: Sum(rhs),rhsMax =   6.91525571028251E-07  8.55508073325747E+00
 cg2d: Sum(rhs),rhsMax =   6.91138204444997E-07  8.55987342448712E+00
 cg2d: Sum(rhs),rhsMax =   6.90751043919136E-07  8.56467300133517E+00
 cg2d: Sum(rhs),rhsMax =   6.90363044952846E-07  8.56948855964188E+00
 cg2d: Sum(rhs),rhsMax =   6.89972907252923E-07  8.57433005100301E+00
 cg2d: Sum(rhs),rhsMax =   8.31834718439950E-07  8.57920835302264E+00
 cg2d: Sum(rhs),rhsMax =   1.23284864799932E-12  3.51371510301793E-03
 cg2d: Sum(rhs),rhsMax =   6.93084885483586E-07  8.53583840284423E+00
 cg2d: Sum(rhs),rhsMax =   6.92692196935241E-07  8.54067028240892E+00
 cg2d: Sum(rhs),rhsMax =   6.92302421612112E-07  8.54548520573161E+00
 cg2d: Sum(rhs),rhsMax =   6.91913299988300E-07  8.55028691209073E+00
 cg2d: Sum(rhs),rhsMax =   6.91525571028251E-07  8.55508073325747E+00
 cg2d: Sum(rhs),rhsMax =   6.91138204444997E-07  8.55987342448712E+00
 cg2d: Sum(rhs),rhsMax =   6.90751043919136E-07  8.56467300133517E+00
 cg2d: Sum(rhs),rhsMax =   6.90363044952846E-07  8.56948855964188E+00
 cg2d: Sum(rhs),rhsMax =   2.50833174675336E-07  8.57433036723187E+00
 cg2d: Sum(rhs),rhsMax =   1.24132327891346E-12  3.65440547649251E-03
 cg2d: Sum(rhs),rhsMax =   6.93084885483586E-07  8.53583840284423E+00
 cg2d: Sum(rhs),rhsMax =   6.92692196935241E-07  8.54067028240892E+00
 cg2d: Sum(rhs),rhsMax =   6.92302421612112E-07  8.54548520573161E+00
 cg2d: Sum(rhs),rhsMax =   6.91913299988300E-07  8.55028691209073E+00
 cg2d: Sum(rhs),rhsMax =   6.91525571028251E-07  8.55508073325747E+00
 cg2d: Sum(rhs),rhsMax =   6.91138204444997E-07  8.55987342448712E+00
 cg2d: Sum(rhs),rhsMax =   6.90751043919136E-07  8.56467300133517E+00
 cg2d: Sum(rhs),rhsMax =   1.14323393063387E-06  8.56948872207712E+00
 cg2d: Sum(rhs),rhsMax =   1.19080877935597E-12  3.84610501334835E-03
 cg2d: Sum(rhs),rhsMax =   6.93084885483586E-07  8.53583840284423E+00
 cg2d: Sum(rhs),rhsMax =   6.92692196935241E-07  8.54067028240892E+00
 cg2d: Sum(rhs),rhsMax =   6.92302421612112E-07  8.54548520573161E+00
 cg2d: Sum(rhs),rhsMax =   6.91913299988300E-07  8.55028691209073E+00
 cg2d: Sum(rhs),rhsMax =   6.91525571028251E-07  8.55508073325747E+00
 cg2d: Sum(rhs),rhsMax =   6.91138204444997E-07  8.55987342448712E+00
 cg2d: Sum(rhs),rhsMax =   3.38020761603275E-07  8.56467272893660E+00
 cg2d: Sum(rhs),rhsMax =   1.23359351050011E-12  3.99490139043016E-03
 cg2d: Sum(rhs),rhsMax =   6.93084885483586E-07  8.53583840284423E+00
 cg2d: Sum(rhs),rhsMax =   6.92692196935241E-07  8.54067028240892E+00
 cg2d: Sum(rhs),rhsMax =   6.92302421612112E-07  8.54548520573161E+00
 cg2d: Sum(rhs),rhsMax =   6.91913299988300E-07  8.55028691209073E+00
 cg2d: Sum(rhs),rhsMax =   6.91525571028251E-07  8.55508073325747E+00
 cg2d: Sum(rhs),rhsMax =   1.20816589088690E-06  8.55987374461651E+00
 cg2d: Sum(rhs),rhsMax =   1.16599154491871E-12  4.10434640987991E-03
 cg2d: Sum(rhs),rhsMax =   6.93084885483586E-07  8.53583840284423E+00
 cg2d: Sum(rhs),rhsMax =   6.92692196935241E-07  8.54067028240892E+00
 cg2d: Sum(rhs),rhsMax =   6.92302421612112E-07  8.54548520573161E+00
 cg2d: Sum(rhs),rhsMax =   6.91913299988300E-07  8.55028691209073E+00
 cg2d: Sum(rhs),rhsMax =   1.45120920791442E-06  8.55508063848618E+00
 cg2d: Sum(rhs),rhsMax =   1.24696824246574E-12  4.18122807586009E-03
 cg2d: Sum(rhs),rhsMax =   6.93084885483586E-07  8.53583840284423E+00
 cg2d: Sum(rhs),rhsMax =   6.92692196935241E-07  8.54067028240892E+00
 cg2d: Sum(rhs),rhsMax =   6.92302421612112E-07  8.54548520573161E+00
 cg2d: Sum(rhs),rhsMax =   1.78437787212715E-06  8.55028671238112E+00
 cg2d: Sum(rhs),rhsMax =   1.26432344251317E-12  4.23697690440066E-03
 cg2d: Sum(rhs),rhsMax =   6.93084885483586E-07  8.53583840284423E+00
 cg2d: Sum(rhs),rhsMax =   6.92692196935241E-07  8.54067028240892E+00
 cg2d: Sum(rhs),rhsMax =  -9.50673687327708E-07  8.54548510259579E+00
 cg2d: Sum(rhs),rhsMax =   1.30769109348993E-12  4.28585280686403E-03
 cg2d: Sum(rhs),rhsMax =   6.93084885483586E-07  8.53583840284423E+00
 cg2d: Sum(rhs),rhsMax =   1.09648283341812E-07  8.54067035162757E+00
 cg2d: Sum(rhs),rhsMax =   1.26858254613350E-12  4.34917166775313E-03
 cg2d: Sum(rhs),rhsMax =   6.93084203362559E-07  8.53583840302649E+00
 cg2d: Sum(rhs),rhsMax =   1.18207449312712E-12  4.44630199071074E-03
 cg2d: Sum(rhs),rhsMax =  -2.44783471714527E-07  8.51897418323859E+00
 cg2d: Sum(rhs),rhsMax =  -2.44957739425899E-07  8.51294224856493E+00
 cg2d: Sum(rhs),rhsMax =  -2.45131850817870E-07  8.50690564885983E+00
 cg2d: Sum(rhs),rhsMax =  -2.45306104318388E-07  8.50087010325378E+00
 cg2d: Sum(rhs),rhsMax =  -2.45480840987966E-07  8.49484030788981E+00
 cg2d: Sum(rhs),rhsMax =  -2.45655421338142E-07  8.48882091652209E+00
 cg2d: Sum(rhs),rhsMax =  -2.45829966161182E-07  8.48281648598470E+00
 cg2d: Sum(rhs),rhsMax =  -2.46003693860075E-07  8.47683141604414E+00
 cg2d: Sum(rhs),rhsMax =  -2.46177087603883E-07  8.47086986481543E+00
 cg2d: Sum(rhs),rhsMax =  -2.46350516874827E-07  8.46493565647207E+00
 EXTERNAL_FIELDS_LOAD, it=   3600570 : Reading new data, i0,i1=   10   11 (prev=    9   12 )
 DIC_FIELDS_LOAD, it=   3600570 : Reading new data, i0,i1=   10   11 (prev=    9   10 )
 cg2d: Sum(rhs),rhsMax =  -2.46522958491369E-07  8.45903217397129E+00
 cg2d: Sum(rhs),rhsMax =  -2.46693353744831E-07  8.45319776100662E+00
 cg2d: Sum(rhs),rhsMax =  -2.46861752373206E-07  8.44745780781015E+00
 cg2d: Sum(rhs),rhsMax =  -2.47026463284783E-07  8.44183689308228E+00
 cg2d: Sum(rhs),rhsMax =  -2.47187230684176E-07  8.43635808123200E+00
 cg2d: Sum(rhs),rhsMax =  -2.47343706405445E-07  8.43104233122613E+00
 cg2d: Sum(rhs),rhsMax =  -2.47495002270171E-07  8.42590806033104E+00
 cg2d: Sum(rhs),rhsMax =  -2.47640862482967E-07  8.42097079337588E+00
 cg2d: Sum(rhs),rhsMax =  -2.47780199913450E-07  8.41624287670950E+00
 cg2d: Sum(rhs),rhsMax =  -2.47913433781832E-07  8.41173327531019E+00
 cg2d: Sum(rhs),rhsMax =  -2.48040628036961E-07  8.40744751803125E+00
 cg2d: Sum(rhs),rhsMax =  -2.48160993976398E-07  8.40338776690083E+00
 cg2d: Sum(rhs),rhsMax =  -2.48274659497838E-07  8.39955295260282E+00
 cg2d: Sum(rhs),rhsMax =  -2.48382001188929E-07  8.39593904397255E+00
 cg2d: Sum(rhs),rhsMax =  -2.48483310372194E-07  8.39253935780259E+00
 cg2d: Sum(rhs),rhsMax =  -2.48578452044512E-07  8.38934486115791E+00
 cg2d: Sum(rhs),rhsMax =  -2.48667660684987E-07  8.38634455564178E+00
 cg2d: Sum(rhs),rhsMax =  -2.48751881315457E-07  8.38352593271183E+00
 cg2d: Sum(rhs),rhsMax =  -2.48830964721947E-07  8.38087545512510E+00
 cg2d: Sum(rhs),rhsMax =  -2.48905820399159E-07  8.37837910210342E+00
 cg2d: Sum(rhs),rhsMax =  -2.48976242289700E-07  8.37602295704436E+00
 cg2d: Sum(rhs),rhsMax =  -2.49042699351776E-07  8.37379380797618E+00
 cg2d: Sum(rhs),rhsMax =  -2.49106562932866E-07  8.37167959361354E+00
 cg2d: Sum(rhs),rhsMax =  -2.49166241417242E-07  8.36966926830838E+00
 cg2d: Sum(rhs),rhsMax =  -2.49223795378839E-07  8.36775333408158E+00
 cg2d: Sum(rhs),rhsMax =  -2.49279089814536E-07  8.36592380342866E+00
 cg2d: Sum(rhs),rhsMax =  -2.49331364443606E-07  8.36417416133343E+00
 cg2d: Sum(rhs),rhsMax =  -2.49381677974725E-07  8.36249928728285E+00
 cg2d: Sum(rhs),rhsMax =  -2.49429696452808E-07  8.36089538401903E+00
 cg2d: Sum(rhs),rhsMax =  -2.49476237002000E-07  8.35935991281295E+00
 cg2d: Sum(rhs),rhsMax =  -2.49520162753925E-07  8.35789146030961E+00
 cg2d: Sum(rhs),rhsMax =  -2.49562525311831E-07  8.35648964985200E+00
 cg2d: Sum(rhs),rhsMax =  -2.49602841506658E-07  8.35515513914879E+00
 cg2d: Sum(rhs),rhsMax =  -2.49640748961610E-07  8.35388971117527E+00
 cg2d: Sum(rhs),rhsMax =  -2.49676844532587E-07  8.35269628610801E+00
 cg2d: Sum(rhs),rhsMax =  -2.49710517152835E-07  8.35157887088272E+00
 cg2d: Sum(rhs),rhsMax =  -2.49741731295217E-07  8.35054250509572E+00
 cg2d: Sum(rhs),rhsMax =  -2.49770394589177E-07  8.34959323059716E+00
 cg2d: Sum(rhs),rhsMax =  -2.49796435980443E-07  8.34873810769870E+00
 cg2d: Sum(rhs),rhsMax =  -2.49819045450295E-07  8.34798512227025E+00
 cg2d: Sum(rhs),rhsMax =  -2.49838244315015E-07  8.34734290261435E+00
 cg2d: Sum(rhs),rhsMax =  -2.49853975731185E-07  8.34682030367283E+00
 cg2d: Sum(rhs),rhsMax =  -2.49866459967052E-07  8.34642602050246E+00
 cg2d: Sum(rhs),rhsMax =  -2.49874005930906E-07  8.34616833018179E+00
 cg2d: Sum(rhs),rhsMax =  -2.49877167846080E-07  8.34605492416921E+00
 cg2d: Sum(rhs),rhsMax =  -2.49876372038216E-07  8.34609271647880E+00
 cg2d: Sum(rhs),rhsMax =  -2.49870495849791E-07  8.34628766951383E+00
 cg2d: Sum(rhs),rhsMax =  -2.49859972711874E-07  8.34664465917166E+00
 cg2d: Sum(rhs),rhsMax =  -2.49844404720534E-07  8.34716735659488E+00
 cg2d: Sum(rhs),rhsMax =  -2.49823550291239E-07  8.34785810988885E+00
 cg2d: Sum(rhs),rhsMax =  -2.49798063123308E-07  8.34871787621402E+00
 cg2d: Sum(rhs),rhsMax =  -2.49766976878618E-07  8.34974617920463E+00
 cg2d: Sum(rhs),rhsMax =  -2.49731257895291E-07  8.35094113608330E+00
 cg2d: Sum(rhs),rhsMax =  -2.49690643272515E-07  8.35229948619608E+00
 cg2d: Sum(rhs),rhsMax =  -2.49645175642854E-07  8.35381675511217E+00
 cg2d: Sum(rhs),rhsMax =  -2.49595025536564E-07  8.35548736188202E+00
 cg2d: Sum(rhs),rhsMax =  -2.49540875074672E-07  8.35730476743729E+00
 cg2d: Sum(rhs),rhsMax =  -2.49482035030724E-07  8.35926164070414E+00
 cg2d: Sum(rhs),rhsMax =  -2.49419819908780E-07  8.36135002375845E+00
 cg2d: Sum(rhs),rhsMax =  -2.49353568904098E-07  8.36356151790629E+00
 EXTERNAL_FIELDS_LOAD, it=   3600630 : Reading new data, i0,i1=   11   12 (prev=   10   11 )
 DIC_FIELDS_LOAD, it=   3600630 : Reading new data, i0,i1=   11   12 (prev=   10   11 )
 cg2d: Sum(rhs),rhsMax =  -2.49283999664840E-07  8.36588746134833E+00
 cg2d: Sum(rhs),rhsMax =  -2.49212149583400E-07  8.36830171267966E+00
 cg2d: Sum(rhs),rhsMax =  -2.49137990238069E-07  8.37078382670868E+00
 cg2d: Sum(rhs),rhsMax =  -2.49062694024360E-07  8.37331347128018E+00
 cg2d: Sum(rhs),rhsMax =  -2.48986417261676E-07  8.37587083487809E+00
 cg2d: Sum(rhs),rhsMax =  -2.48910055233864E-07  8.37843890797547E+00
 cg2d: Sum(rhs),rhsMax =  -2.48833615046351E-07  8.38100282447941E+00
 cg2d: Sum(rhs),rhsMax =  -2.48757785925591E-07  8.38355008718710E+00
 cg2d: Sum(rhs),rhsMax =  -2.48682930248378E-07  8.38607101327765E+00
 cg2d: Sum(rhs),rhsMax =  -2.48608408526252E-07  8.38855886249661E+00
 cg2d: Sum(rhs),rhsMax =  -2.48536004221478E-07  8.39100987040112E+00
 cg2d: Sum(rhs),rhsMax =  -2.48464210983457E-07  8.39342320470582E+00
 cg2d: Sum(rhs),rhsMax =  -2.48393547508385E-07  8.39580086228628E+00
 cg2d: Sum(rhs),rhsMax =  -2.48323665630323E-07  8.39814747768731E+00
 cg2d: Sum(rhs),rhsMax =  -2.48254892198929E-07  8.40047003473604E+00
 cg2d: Sum(rhs),rhsMax =  -2.48186310614074E-07  8.40277751423481E+00
 cg2d: Sum(rhs),rhsMax =  -2.48117892454047E-07  8.40508048455822E+00
 cg2d: Sum(rhs),rhsMax =  -2.48049687456842E-07  8.40739063604165E+00
 cg2d: Sum(rhs),rhsMax =  -2.47980871392883E-07  8.40972032300375E+00
 cg2d: Sum(rhs),rhsMax =  -2.47910648454308E-07  8.41208213189281E+00
 cg2d: Sum(rhs),rhsMax =  -2.47839537337313E-07  8.41448816606350E+00
 cg2d: Sum(rhs),rhsMax =  -2.47766863026300E-07  8.41694970128980E+00
 cg2d: Sum(rhs),rhsMax =  -2.47691964716523E-07  8.41947813091076E+00
 cg2d: Sum(rhs),rhsMax =  -2.47614714510291E-07  8.42209648974696E+00
 cg2d: Sum(rhs),rhsMax =  -2.47534813979655E-07  8.42482035527151E+00
 cg2d: Sum(rhs),rhsMax =  -2.47451126256237E-07  8.42766351995909E+00
 cg2d: Sum(rhs),rhsMax =  -2.47363992400551E-07  8.43063783312212E+00
 cg2d: Sum(rhs),rhsMax =  -2.47272517128749E-07  8.43375283121391E+00
 cg2d: Sum(rhs),rhsMax =  -2.47176934919935E-07  8.43701559654336E+00
 cg2d: Sum(rhs),rhsMax =  -2.47076883397312E-07  8.44043066353450E+00
 cg2d: Sum(rhs),rhsMax =  -2.46972234663190E-07  8.44400002260639E+00
 cg2d: Sum(rhs),rhsMax =  -2.46863251618379E-07  8.44772316054511E+00
 cg2d: Sum(rhs),rhsMax =  -2.46750062160572E-07  8.45159719138741E+00
 cg2d: Sum(rhs),rhsMax =  -2.46632367861821E-07  8.45561701011588E+00
 cg2d: Sum(rhs),rhsMax =  -2.46511149271100E-07  8.45977551282957E+00
 cg2d: Sum(rhs),rhsMax =  -2.46386285596145E-07  8.46406373659226E+00
 cg2d: Sum(rhs),rhsMax =  -2.46257769731528E-07  8.46847122879392E+00
 cg2d: Sum(rhs),rhsMax =  -2.46126411695968E-07  8.47298635145432E+00
 cg2d: Sum(rhs),rhsMax =  -2.45992481495705E-07  8.47759653567383E+00
 cg2d: Sum(rhs),rhsMax =  -2.45856256242405E-07  8.48228855871733E+00
 cg2d: Sum(rhs),rhsMax =  -3.68936248662521E-07  8.48704859561070E+00
 cg2d: Sum(rhs),rhsMax =  -3.68726610133763E-07  8.49186356476430E+00
 cg2d: Sum(rhs),rhsMax =  -3.68516275273123E-07  8.49672000841239E+00
 cg2d: Sum(rhs),rhsMax =  -3.68304220899063E-07  8.50160547036983E+00
 cg2d: Sum(rhs),rhsMax =  -3.68091960467609E-07  8.50650860585887E+00
 cg2d: Sum(rhs),rhsMax =  -3.67879593454745E-07  8.51141929218780E+00
 cg2d: Sum(rhs),rhsMax =  -3.67667219336454E-07  8.51632880423137E+00
 cg2d: Sum(rhs),rhsMax =  -3.67455783134574E-07  8.52122998434088E+00
 cg2d: Sum(rhs),rhsMax =  -3.67244659571497E-07  8.52611738807373E+00
 cg2d: Sum(rhs),rhsMax =  -3.67035553949790E-07  8.53098739609991E+00
 cg2d: Sum(rhs),rhsMax =  -3.68936248662521E-07  8.48704859561070E+00
 cg2d: Sum(rhs),rhsMax =  -3.68726610133763E-07  8.49186356476430E+00
 cg2d: Sum(rhs),rhsMax =  -3.68516275273123E-07  8.49672000841239E+00
 cg2d: Sum(rhs),rhsMax =  -3.68304220899063E-07  8.50160547036983E+00
 cg2d: Sum(rhs),rhsMax =  -3.68091960467609E-07  8.50650860585887E+00
 cg2d: Sum(rhs),rhsMax =  -3.67879593454745E-07  8.51141929218780E+00
 cg2d: Sum(rhs),rhsMax =  -3.67667219336454E-07  8.51632880423137E+00
 cg2d: Sum(rhs),rhsMax =  -3.67455783134574E-07  8.52122998434088E+00
 cg2d: Sum(rhs),rhsMax =  -3.67244659571497E-07  8.52611738807373E+00
 cg2d: Sum(rhs),rhsMax =   1.02269995494453E-06  8.53098749841913E+00
 cg2d: Sum(rhs),rhsMax =   1.24615389286808E-12  4.58705911665587E-03
 cg2d: Sum(rhs),rhsMax =  -3.68936248662521E-07  8.48704859561070E+00
 cg2d: Sum(rhs),rhsMax =  -3.68726610133763E-07  8.49186356476430E+00
 cg2d: Sum(rhs),rhsMax =  -3.68516275273123E-07  8.49672000841239E+00
 cg2d: Sum(rhs),rhsMax =  -3.68304220899063E-07  8.50160547036983E+00
 cg2d: Sum(rhs),rhsMax =  -3.68091960467609E-07  8.50650860585887E+00
 cg2d: Sum(rhs),rhsMax =  -3.67879593454745E-07  8.51141929218780E+00
 cg2d: Sum(rhs),rhsMax =  -3.67667219336454E-07  8.51632880423137E+00
 cg2d: Sum(rhs),rhsMax =  -3.67455783134574E-07  8.52122998434088E+00
 cg2d: Sum(rhs),rhsMax =   5.21252808027839E-07  8.52611726140098E+00
 cg2d: Sum(rhs),rhsMax =   1.15175925613108E-12  4.91885303403507E-03
 cg2d: Sum(rhs),rhsMax =  -3.68936248662521E-07  8.48704859561070E+00
 cg2d: Sum(rhs),rhsMax =  -3.68726610133763E-07  8.49186356476430E+00
 cg2d: Sum(rhs),rhsMax =  -3.68516275273123E-07  8.49672000841239E+00
 cg2d: Sum(rhs),rhsMax =  -3.68304220899063E-07  8.50160547036983E+00
 cg2d: Sum(rhs),rhsMax =  -3.68091960467609E-07  8.50650860585887E+00
 cg2d: Sum(rhs),rhsMax =  -3.67879593454745E-07  8.51141929218780E+00
 cg2d: Sum(rhs),rhsMax =  -3.67667219336454E-07  8.51632880423137E+00
 cg2d: Sum(rhs),rhsMax =  -4.70701877475221E-08  8.52122978283360E+00
 cg2d: Sum(rhs),rhsMax =   1.07593822900617E-12  5.35762081678604E-03
 cg2d: Sum(rhs),rhsMax =  -3.68936248662521E-07  8.48704859561070E+00
 cg2d: Sum(rhs),rhsMax =  -3.68726610133763E-07  8.49186356476430E+00
 cg2d: Sum(rhs),rhsMax =  -3.68516275273123E-07  8.49672000841239E+00
 cg2d: Sum(rhs),rhsMax =  -3.68304220899063E-07  8.50160547036983E+00
 cg2d: Sum(rhs),rhsMax =  -3.68091960467609E-07  8.50650860585887E+00
 cg2d: Sum(rhs),rhsMax =  -3.67879593454745E-07  8.51141929218780E+00
 cg2d: Sum(rhs),rhsMax =  -4.67146108462657E-08  8.51632872860480E+00
 cg2d: Sum(rhs),rhsMax =   9.17809455648567E-13  5.52900258284884E-03
 cg2d: Sum(rhs),rhsMax =  -3.68936248662521E-07  8.48704859561070E+00
 cg2d: Sum(rhs),rhsMax =  -3.68726610133763E-07  8.49186356476430E+00
 cg2d: Sum(rhs),rhsMax =  -3.68516275273123E-07  8.49672000841239E+00
 cg2d: Sum(rhs),rhsMax =  -3.68304220899063E-07  8.50160547036983E+00
 cg2d: Sum(rhs),rhsMax =  -3.68091960467609E-07  8.50650860585887E+00
 cg2d: Sum(rhs),rhsMax =  -1.00870966690536E-06  8.51141944343428E+00
 cg2d: Sum(rhs),rhsMax =   7.24205549216484E-13  5.52677382012215E-03
 cg2d: Sum(rhs),rhsMax =  -3.68936248662521E-07  8.48704859561070E+00
 cg2d: Sum(rhs),rhsMax =  -3.68726610133763E-07  8.49186356476430E+00
 cg2d: Sum(rhs),rhsMax =  -3.68516275273123E-07  8.49672000841239E+00
 cg2d: Sum(rhs),rhsMax =  -3.68304220899063E-07  8.50160547036983E+00
 cg2d: Sum(rhs),rhsMax =   2.71493632908459E-07  8.50650894627138E+00
 cg2d: Sum(rhs),rhsMax =   5.26729194069977E-13  5.69783459419222E-03
 cg2d: Sum(rhs),rhsMax =  -3.68936248662521E-07  8.48704859561070E+00
 cg2d: Sum(rhs),rhsMax =  -3.68726610133763E-07  8.49186356476430E+00
 cg2d: Sum(rhs),rhsMax =  -3.68516275273123E-07  8.49672000841239E+00
 cg2d: Sum(rhs),rhsMax =  -3.09343526794237E-07  8.50160520206504E+00
 cg2d: Sum(rhs),rhsMax =   3.20522686160777E-13  5.90590844552337E-03
 cg2d: Sum(rhs),rhsMax =  -3.68936248662521E-07  8.48704859561070E+00
 cg2d: Sum(rhs),rhsMax =  -3.68726610133763E-07  8.49186356476430E+00
 cg2d: Sum(rhs),rhsMax =  -1.74791878748692E-06  8.49672021405982E+00
 cg2d: Sum(rhs),rhsMax =   1.39508303467091E-13  5.93494202540630E-03
 cg2d: Sum(rhs),rhsMax =  -3.68936248662521E-07  8.48704859561070E+00
 cg2d: Sum(rhs),rhsMax =  -1.34794703399166E-07  8.49186383247262E+00
 cg2d: Sum(rhs),rhsMax =  -7.71154094977623E-14  5.90828896304186E-03
 cg2d: Sum(rhs),rhsMax =  -3.68936376560214E-07  8.48704859562438E+00
 cg2d: Sum(rhs),rhsMax =  -2.88142792641356E-13  5.89585324740153E-03
 cg2d: Sum(rhs),rhsMax =  -2.44783471714527E-07  8.51897418323859E+00
 cg2d: Sum(rhs),rhsMax =  -2.44957739425899E-07  8.51294224856493E+00
 cg2d: Sum(rhs),rhsMax =  -2.45131850817870E-07  8.50690564885983E+00
 cg2d: Sum(rhs),rhsMax =  -2.45306104318388E-07  8.50087010325378E+00
 cg2d: Sum(rhs),rhsMax =  -2.45480840987966E-07  8.49484030788981E+00
 cg2d: Sum(rhs),rhsMax =  -2.45655421338142E-07  8.48882091652209E+00
 cg2d: Sum(rhs),rhsMax =  -2.45829966161182E-07  8.48281648598470E+00
 cg2d: Sum(rhs),rhsMax =  -2.46003693860075E-07  8.47683141604414E+00
 cg2d: Sum(rhs),rhsMax =  -2.46177087603883E-07  8.47086986481543E+00
 cg2d: Sum(rhs),rhsMax =  -2.46350516874827E-07  8.46493565647207E+00
 EXTERNAL_FIELDS_LOAD, it=   3600570 : Reading new data, i0,i1=   10   11 (prev=    9   12 )
 DIC_FIELDS_LOAD, it=   3600570 : Reading new data, i0,i1=   10   11 (prev=    9   10 )
 cg2d: Sum(rhs),rhsMax =  -2.46522958491369E-07  8.45903217397129E+00
 cg2d: Sum(rhs),rhsMax =  -2.46693353744831E-07  8.45319776100662E+00
 cg2d: Sum(rhs),rhsMax =  -2.46861752373206E-07  8.44745780781015E+00
 cg2d: Sum(rhs),rhsMax =  -2.47026463284783E-07  8.44183689308228E+00
 cg2d: Sum(rhs),rhsMax =  -2.47187230684176E-07  8.43635808123200E+00
 cg2d: Sum(rhs),rhsMax =  -2.47343706405445E-07  8.43104233122613E+00
 cg2d: Sum(rhs),rhsMax =  -2.47495002270171E-07  8.42590806033104E+00
 cg2d: Sum(rhs),rhsMax =  -2.47640862482967E-07  8.42097079337588E+00
 cg2d: Sum(rhs),rhsMax =  -2.47780199913450E-07  8.41624287670950E+00
 cg2d: Sum(rhs),rhsMax =  -2.47913433781832E-07  8.41173327531019E+00
 cg2d: Sum(rhs),rhsMax =  -2.48040628036961E-07  8.40744751803125E+00
 cg2d: Sum(rhs),rhsMax =  -2.48160993976398E-07  8.40338776690083E+00
 cg2d: Sum(rhs),rhsMax =  -2.48274659497838E-07  8.39955295260282E+00
 cg2d: Sum(rhs),rhsMax =  -2.48382001188929E-07  8.39593904397255E+00
 cg2d: Sum(rhs),rhsMax =  -2.48483310372194E-07  8.39253935780259E+00
 cg2d: Sum(rhs),rhsMax =  -2.48578452044512E-07  8.38934486115791E+00
 cg2d: Sum(rhs),rhsMax =  -2.48667660684987E-07  8.38634455564178E+00
 cg2d: Sum(rhs),rhsMax =  -2.48751881315457E-07  8.38352593271183E+00
 cg2d: Sum(rhs),rhsMax =  -2.48830964721947E-07  8.38087545512510E+00
 cg2d: Sum(rhs),rhsMax =  -2.48905820399159E-07  8.37837910210342E+00
 cg2d: Sum(rhs),rhsMax =  -2.48976242289700E-07  8.37602295704436E+00
 cg2d: Sum(rhs),rhsMax =  -2.49042699351776E-07  8.37379380797618E+00
 cg2d: Sum(rhs),rhsMax =  -2.49106562932866E-07  8.37167959361354E+00
 cg2d: Sum(rhs),rhsMax =  -2.49166241417242E-07  8.36966926830838E+00
 cg2d: Sum(rhs),rhsMax =  -2.49223795378839E-07  8.36775333408158E+00
 cg2d: Sum(rhs),rhsMax =  -2.49279089814536E-07  8.36592380342866E+00
 cg2d: Sum(rhs),rhsMax =  -2.49331364443606E-07  8.36417416133343E+00
 cg2d: Sum(rhs),rhsMax =  -2.49381677974725E-07  8.36249928728285E+00
 cg2d: Sum(rhs),rhsMax =  -2.49429696452808E-07  8.36089538401903E+00
 cg2d: Sum(rhs),rhsMax =  -2.49476237002000E-07  8.35935991281295E+00
 cg2d: Sum(rhs),rhsMax =  -2.49520162753925E-07  8.35789146030961E+00
 cg2d: Sum(rhs),rhsMax =  -2.49562525311831E-07  8.35648964985200E+00
 cg2d: Sum(rhs),rhsMax =  -2.49602841506658E-07  8.35515513914879E+00
 cg2d: Sum(rhs),rhsMax =  -2.49640748961610E-07  8.35388971117527E+00
 cg2d: Sum(rhs),rhsMax =  -2.49676844532587E-07  8.35269628610801E+00
 cg2d: Sum(rhs),rhsMax =  -2.49710517152835E-07  8.35157887088272E+00
 cg2d: Sum(rhs),rhsMax =  -2.49741731295217E-07  8.35054250509572E+00
 cg2d: Sum(rhs),rhsMax =  -2.49770394589177E-07  8.34959323059716E+00
 cg2d: Sum(rhs),rhsMax =  -2.49796435980443E-07  8.34873810769870E+00
 cg2d: Sum(rhs),rhsMax =  -2.49819045450295E-07  8.34798512227025E+00
 cg2d: Sum(rhs),rhsMax =  -2.49838244315015E-07  8.34734290261435E+00
 cg2d: Sum(rhs),rhsMax =  -2.49853975731185E-07  8.34682030367283E+00
 cg2d: Sum(rhs),rhsMax =  -2.49866459967052E-07  8.34642602050246E+00
 cg2d: Sum(rhs),rhsMax =  -2.49874005930906E-07  8.34616833018179E+00
 cg2d: Sum(rhs),rhsMax =  -2.49877167846080E-07  8.34605492416921E+00
 cg2d: Sum(rhs),rhsMax =  -2.49876372038216E-07  8.34609271647880E+00
 cg2d: Sum(rhs),rhsMax =  -2.49870495849791E-07  8.34628766951383E+00
 cg2d: Sum(rhs),rhsMax =  -2.49859972711874E-07  8.34664465917166E+00
 cg2d: Sum(rhs),rhsMax =  -2.49844404720534E-07  8.34716735659488E+00
 cg2d: Sum(rhs),rhsMax =  -2.49823550291239E-07  8.34785810988885E+00
 cg2d: Sum(rhs),rhsMax =  -2.49798063123308E-07  8.34871787621402E+00
 cg2d: Sum(rhs),rhsMax =  -2.49766976878618E-07  8.34974617920463E+00
 cg2d: Sum(rhs),rhsMax =  -2.49731257895291E-07  8.35094113608330E+00
 cg2d: Sum(rhs),rhsMax =  -2.49690643272515E-07  8.35229948619608E+00
 cg2d: Sum(rhs),rhsMax =  -2.49645175642854E-07  8.35381675511217E+00
 cg2d: Sum(rhs),rhsMax =  -2.49595025536564E-07  8.35548736188202E+00
 cg2d: Sum(rhs),rhsMax =  -2.49540875074672E-07  8.35730476743729E+00
 cg2d: Sum(rhs),rhsMax =  -2.49482035030724E-07  8.35926164070414E+00
 cg2d: Sum(rhs),rhsMax =  -2.49419819908780E-07  8.36135002375845E+00
 cg2d: Sum(rhs),rhsMax =  -2.49353568904098E-07  8.36356151790629E+00
 EXTERNAL_FIELDS_LOAD, it=   3600630 : Reading new data, i0,i1=   11   12 (prev=   10   11 )
 DIC_FIELDS_LOAD, it=   3600630 : Reading new data, i0,i1=   11   12 (prev=   10   11 )
 cg2d: Sum(rhs),rhsMax =  -2.49283999664840E-07  8.36588746134833E+00
 cg2d: Sum(rhs),rhsMax =  -2.49212149583400E-07  8.36830171267966E+00
 cg2d: Sum(rhs),rhsMax =  -2.49137990238069E-07  8.37078382670868E+00
 cg2d: Sum(rhs),rhsMax =  -2.49062694024360E-07  8.37331347128018E+00
 cg2d: Sum(rhs),rhsMax =  -2.48986417261676E-07  8.37587083487809E+00
 cg2d: Sum(rhs),rhsMax =  -2.48910055233864E-07  8.37843890797547E+00
 cg2d: Sum(rhs),rhsMax =  -2.48833615046351E-07  8.38100282447941E+00
 cg2d: Sum(rhs),rhsMax =  -2.48757785925591E-07  8.38355008718710E+00
 cg2d: Sum(rhs),rhsMax =  -2.48682930248378E-07  8.38607101327765E+00
 cg2d: Sum(rhs),rhsMax =  -2.48608408526252E-07  8.38855886249661E+00
 cg2d: Sum(rhs),rhsMax =  -2.48536004221478E-07  8.39100987040112E+00
 cg2d: Sum(rhs),rhsMax =  -2.48464210983457E-07  8.39342320470582E+00
 cg2d: Sum(rhs),rhsMax =  -2.48393547508385E-07  8.39580086228628E+00
 cg2d: Sum(rhs),rhsMax =  -2.48323665630323E-07  8.39814747768731E+00
 cg2d: Sum(rhs),rhsMax =  -2.48254892198929E-07  8.40047003473604E+00
 cg2d: Sum(rhs),rhsMax =  -2.48186310614074E-07  8.40277751423481E+00
 cg2d: Sum(rhs),rhsMax =  -2.48117892454047E-07  8.40508048455822E+00
 cg2d: Sum(rhs),rhsMax =  -2.48049687456842E-07  8.40739063604165E+00
 cg2d: Sum(rhs),rhsMax =  -2.47980871392883E-07  8.40972032300375E+00
 cg2d: Sum(rhs),rhsMax =  -2.47910648454308E-07  8.41208213189281E+00
 cg2d: Sum(rhs),rhsMax =  -2.47839537337313E-07  8.41448816606350E+00
 cg2d: Sum(rhs),rhsMax =  -2.47766863026300E-07  8.41694970128980E+00
 cg2d: Sum(rhs),rhsMax =  -2.47691964716523E-07  8.41947813091076E+00
 cg2d: Sum(rhs),rhsMax =  -2.47614714510291E-07  8.42209648974696E+00
 cg2d: Sum(rhs),rhsMax =  -2.47534813979655E-07  8.42482035527151E+00
 cg2d: Sum(rhs),rhsMax =  -2.47451126256237E-07  8.42766351995909E+00
 cg2d: Sum(rhs),rhsMax =  -2.47363992400551E-07  8.43063783312212E+00
 cg2d: Sum(rhs),rhsMax =  -2.47272517128749E-07  8.43375283121391E+00
 cg2d: Sum(rhs),rhsMax =  -2.47176934919935E-07  8.43701559654336E+00
 cg2d: Sum(rhs),rhsMax =  -2.47076883397312E-07  8.44043066353450E+00
 cg2d: Sum(rhs),rhsMax =  -1.07403195670486E-07  8.44400005002514E+00
 cg2d: Sum(rhs),rhsMax =  -1.07355681677745E-07  8.44772317018264E+00
 cg2d: Sum(rhs),rhsMax =  -1.07306313168465E-07  8.45159715495278E+00
 cg2d: Sum(rhs),rhsMax =  -1.07255161196917E-07  8.45561690452278E+00
 cg2d: Sum(rhs),rhsMax =  -1.07202076549129E-07  8.45977532517012E+00
 cg2d: Sum(rhs),rhsMax =  -1.07147762662407E-07  8.46406346549882E+00
 cg2d: Sum(rhs),rhsMax =  -1.07092098744488E-07  8.46847088385509E+00
 cg2d: Sum(rhs),rhsMax =  -1.07035013741097E-07  8.47298595153185E+00
 cg2d: Sum(rhs),rhsMax =  -1.06976429492533E-07  8.47759610658159E+00
 cg2d: Sum(rhs),rhsMax =  -1.06917077857815E-07  8.48228813058692E+00
 cg2d: Sum(rhs),rhsMax =  -1.07403195670486E-07  8.44400005002514E+00
 cg2d: Sum(rhs),rhsMax =  -1.07355681677745E-07  8.44772317018264E+00
 cg2d: Sum(rhs),rhsMax =  -1.07306313168465E-07  8.45159715495278E+00
 cg2d: Sum(rhs),rhsMax =  -1.07255161196917E-07  8.45561690452278E+00
 cg2d: Sum(rhs),rhsMax =  -1.07202076549129E-07  8.45977532517012E+00
 cg2d: Sum(rhs),rhsMax =  -1.07147762662407E-07  8.46406346549882E+00
 cg2d: Sum(rhs),rhsMax =  -1.07092098744488E-07  8.46847088385509E+00
 cg2d: Sum(rhs),rhsMax =  -1.07035013741097E-07  8.47298595153185E+00
 cg2d: Sum(rhs),rhsMax =  -1.06976429492533E-07  8.47759610658159E+00
 cg2d: Sum(rhs),rhsMax =   4.63459329580473E-07  8.48228818482442E+00
 cg2d: Sum(rhs),rhsMax =  -3.71372007310685E-13  6.10664080548949E-03
 cg2d: Sum(rhs),rhsMax =  -1.07403195670486E-07  8.44400005002514E+00
 cg2d: Sum(rhs),rhsMax =  -1.07355681677745E-07  8.44772317018264E+00
 cg2d: Sum(rhs),rhsMax =  -1.07306313168465E-07  8.45159715495278E+00
 cg2d: Sum(rhs),rhsMax =  -1.07255161196917E-07  8.45561690452278E+00
 cg2d: Sum(rhs),rhsMax =  -1.07202076549129E-07  8.45977532517012E+00
 cg2d: Sum(rhs),rhsMax =  -1.07147762662407E-07  8.46406346549882E+00
 cg2d: Sum(rhs),rhsMax =  -1.07092098744488E-07  8.46847088385509E+00
 cg2d: Sum(rhs),rhsMax =  -1.07035013741097E-07  8.47298595153185E+00
 cg2d: Sum(rhs),rhsMax =  -7.81777295344455E-07  8.47759587332961E+00
 cg2d: Sum(rhs),rhsMax =  -6.06666389593525E-13  6.28718159459587E-03
 cg2d: Sum(rhs),rhsMax =  -1.07403195670486E-07  8.44400005002514E+00
 cg2d: Sum(rhs),rhsMax =  -1.07355681677745E-07  8.44772317018264E+00
 cg2d: Sum(rhs),rhsMax =  -1.07306313168465E-07  8.45159715495278E+00
 cg2d: Sum(rhs),rhsMax =  -1.07255161196917E-07  8.45561690452278E+00
 cg2d: Sum(rhs),rhsMax =  -1.07202076549129E-07  8.45977532517012E+00
 cg2d: Sum(rhs),rhsMax =  -1.07147762662407E-07  8.46406346549882E+00
 cg2d: Sum(rhs),rhsMax =  -1.07092098744488E-07  8.46847088385509E+00
 cg2d: Sum(rhs),rhsMax =   3.83156198324741E-07  8.47298604242224E+00
 cg2d: Sum(rhs),rhsMax =  -7.57994484965264E-13  6.26201113767281E-03
 cg2d: Sum(rhs),rhsMax =  -1.07403195670486E-07  8.44400005002514E+00
 cg2d: Sum(rhs),rhsMax =  -1.07355681677745E-07  8.44772317018264E+00
 cg2d: Sum(rhs),rhsMax =  -1.07306313168465E-07  8.45159715495278E+00
 cg2d: Sum(rhs),rhsMax =  -1.07255161196917E-07  8.45561690452278E+00
 cg2d: Sum(rhs),rhsMax =  -1.07202076549129E-07  8.45977532517012E+00
 cg2d: Sum(rhs),rhsMax =  -1.07147762662407E-07  8.46406346549882E+00
 cg2d: Sum(rhs),rhsMax =  -3.28364095025790E-07  8.46847103804199E+00
 cg2d: Sum(rhs),rhsMax =  -9.53176920581717E-13  6.21091767544747E-03
 cg2d: Sum(rhs),rhsMax =  -1.07403195670486E-07  8.44400005002514E+00
 cg2d: Sum(rhs),rhsMax =  -1.07355681677745E-07  8.44772317018264E+00
 cg2d: Sum(rhs),rhsMax =  -1.07306313168465E-07  8.45159715495278E+00
 cg2d: Sum(rhs),rhsMax =  -1.07255161196917E-07  8.45561690452278E+00
 cg2d: Sum(rhs),rhsMax =  -1.07202076549129E-07  8.45977532517012E+00
 cg2d: Sum(rhs),rhsMax =  -2.99383231094907E-07  8.46406347332484E+00
 cg2d: Sum(rhs),rhsMax =  -1.09233172662732E-12  6.57947294994007E-03
 cg2d: Sum(rhs),rhsMax =  -1.07403195670486E-07  8.44400005002514E+00
 cg2d: Sum(rhs),rhsMax =  -1.07355681677745E-07  8.44772317018264E+00
 cg2d: Sum(rhs),rhsMax =  -1.07306313168465E-07  8.45159715495278E+00
 cg2d: Sum(rhs),rhsMax =  -1.07255161196917E-07  8.45561690452278E+00
 cg2d: Sum(rhs),rhsMax =  -1.05861148114172E-06  8.45977548039332E+00
 cg2d: Sum(rhs),rhsMax =  -1.13467922056398E-12  7.18633840412840E-03
 cg2d: Sum(rhs),rhsMax =  -1.07403195670486E-07  8.44400005002514E+00
 cg2d: Sum(rhs),rhsMax =  -1.07355681677745E-07  8.44772317018264E+00
 cg2d: Sum(rhs),rhsMax =  -1.07306313168465E-07  8.45159715495278E+00
 cg2d: Sum(rhs),rhsMax =   1.07066357202257E-06  8.45561714913445E+00
(PID.TID 0000.0001) // =======================================================
(PID.TID 0000.0001) // Begin AD_MONITOR dynamic field statistics
(PID.TID 0000.0001) // =======================================================
(PID.TID 0000.0001) %MON ad_time_tsnumber             =               3600664
(PID.TID 0000.0001) %MON ad_time_secondsf             =   1.5554868480000E+11
(PID.TID 0000.0001) %MON ad_dynstat_adeta_max         =   2.2394617042915E+02
(PID.TID 0000.0001) %MON ad_dynstat_adeta_min         =  -9.1654046463562E+02
(PID.TID 0000.0001) %MON ad_dynstat_adeta_mean        =  -4.4491372649435E+00
(PID.TID 0000.0001) %MON ad_dynstat_adeta_sd          =   1.7977414678589E+02
(PID.TID 0000.0001) %MON ad_dynstat_adeta_del2        =   1.3238150750830E+00
(PID.TID 0000.0001) %MON ad_dynstat_aduvel_max        =   4.3466916793823E+03
(PID.TID 0000.0001) %MON ad_dynstat_aduvel_min        =  -2.7561149058180E+03
(PID.TID 0000.0001) %MON ad_dynstat_aduvel_mean       =   2.9240663854235E+01
(PID.TID 0000.0001) %MON ad_dynstat_aduvel_sd         =   1.9421338572213E+02
(PID.TID 0000.0001) %MON ad_dynstat_aduvel_del2       =   5.2523049373581E-01
(PID.TID 0000.0001) %MON ad_dynstat_advvel_max        =   1.8367293008980E+03
(PID.TID 0000.0001) %MON ad_dynstat_advvel_min        =  -2.0265607938377E+03
(PID.TID 0000.0001) %MON ad_dynstat_advvel_mean       =  -2.1927057621693E+01
(PID.TID 0000.0001) %MON ad_dynstat_advvel_sd         =   1.5625655978890E+02
(PID.TID 0000.0001) %MON ad_dynstat_advvel_del2       =   5.1251791826616E-01
(PID.TID 0000.0001) %MON ad_dynstat_adwvel_max        =   4.9915764970751E+02
(PID.TID 0000.0001) %MON ad_dynstat_adwvel_min        =  -9.1711138853065E+03
(PID.TID 0000.0001) %MON ad_dynstat_adwvel_mean       =  -1.4233738396584E-02
(PID.TID 0000.0001) %MON ad_dynstat_adwvel_sd         =   1.6709577861583E+01
(PID.TID 0000.0001) %MON ad_dynstat_adwvel_del2       =   4.1396542236776E-01
(PID.TID 0000.0001) %MON ad_dynstat_adtheta_max       =   3.3100179268508E+02
(PID.TID 0000.0001) %MON ad_dynstat_adtheta_min       =  -2.4786987109068E+02
(PID.TID 0000.0001) %MON ad_dynstat_adtheta_mean      =   1.4099052884904E-01
(PID.TID 0000.0001) %MON ad_dynstat_adtheta_sd        =   2.2176692876957E+01
(PID.TID 0000.0001) %MON ad_dynstat_adtheta_del2      =   9.7337417932167E-02
(PID.TID 0000.0001) %MON ad_dynstat_adsalt_max        =   1.2896350468244E+03
(PID.TID 0000.0001) %MON ad_dynstat_adsalt_min        =  -1.7388090234749E+03
(PID.TID 0000.0001) %MON ad_dynstat_adsalt_mean       =  -7.4720390939159E-01
(PID.TID 0000.0001) %MON ad_dynstat_adsalt_sd         =   1.1964818785988E+02
(PID.TID 0000.0001) %MON ad_dynstat_adsalt_del2       =   5.0195135953637E-01
(PID.TID 0000.0001) %MON ad_dynstat_adsst_max         =   2.2438197329541E+00
(PID.TID 0000.0001) %MON ad_dynstat_adsst_min         =  -5.7049902042589E-01
(PID.TID 0000.0001) %MON ad_dynstat_adsst_mean        =   1.5846502453440E-02
(PID.TID 0000.0001) %MON ad_dynstat_adsst_sd          =   4.9372183203474E-01
(PID.TID 0000.0001) %MON ad_dynstat_adsst_del2        =   3.9710726150835E-03
(PID.TID 0000.0001) %MON ad_dynstat_adsss_max         =   1.7460614803515E+00
(PID.TID 0000.0001) %MON ad_dynstat_adsss_min         =  -6.1526810981022E+00
(PID.TID 0000.0001) %MON ad_dynstat_adsss_mean        =  -1.4353492374713E-02
(PID.TID 0000.0001) %MON ad_dynstat_adsss_sd          =   1.2652144820031E+00
(PID.TID 0000.0001) %MON ad_dynstat_adsss_del2        =   1.0659707422121E-02
(PID.TID 0000.0001) %MON ad_forcing_adqnet_max        =   0.0000000000000E+00
(PID.TID 0000.0001) %MON ad_forcing_adqnet_min        =   0.0000000000000E+00
(PID.TID 0000.0001) %MON ad_forcing_adqnet_mean       =   0.0000000000000E+00
(PID.TID 0000.0001) %MON ad_forcing_adqnet_sd         =   0.0000000000000E+00
(PID.TID 0000.0001) %MON ad_forcing_adqnet_del2       =   0.0000000000000E+00
(PID.TID 0000.0001) %MON ad_forcing_adqsw_max         =   3.6175661588676E-03
(PID.TID 0000.0001) %MON ad_forcing_adqsw_min         =  -6.7799861950664E-03
(PID.TID 0000.0001) %MON ad_forcing_adqsw_mean        =   7.4923059970224E-06
(PID.TID 0000.0001) %MON ad_forcing_adqsw_sd          =   4.6153772865016E-04
(PID.TID 0000.0001) %MON ad_forcing_adqsw_del2        =   1.3741858922340E-05
(PID.TID 0000.0001) %MON ad_forcing_adempmr_max       =   0.0000000000000E+00
(PID.TID 0000.0001) %MON ad_forcing_adempmr_min       =   0.0000000000000E+00
(PID.TID 0000.0001) %MON ad_forcing_adempmr_mean      =   0.0000000000000E+00
(PID.TID 0000.0001) %MON ad_forcing_adempmr_sd        =   0.0000000000000E+00
(PID.TID 0000.0001) %MON ad_forcing_adempmr_del2      =   0.0000000000000E+00
(PID.TID 0000.0001) %MON ad_forcing_adfu_max          =   0.0000000000000E+00
(PID.TID 0000.0001) %MON ad_forcing_adfu_min          =   0.0000000000000E+00
(PID.TID 0000.0001) %MON ad_forcing_adfu_mean         =   0.0000000000000E+00
(PID.TID 0000.0001) %MON ad_forcing_adfu_sd           =   0.0000000000000E+00
(PID.TID 0000.0001) %MON ad_forcing_adfu_del2         =   0.0000000000000E+00
(PID.TID 0000.0001) %MON ad_forcing_adfv_max          =   0.0000000000000E+00
(PID.TID 0000.0001) %MON ad_forcing_adfv_min          =   0.0000000000000E+00
(PID.TID 0000.0001) %MON ad_forcing_adfv_mean         =   0.0000000000000E+00
(PID.TID 0000.0001) %MON ad_forcing_adfv_sd           =   0.0000000000000E+00
(PID.TID 0000.0001) %MON ad_forcing_adfv_del2         =   0.0000000000000E+00
(PID.TID 0000.0001) // =======================================================
(PID.TID 0000.0001) // End AD_MONITOR dynamic field statistics
(PID.TID 0000.0001) // =======================================================
(PID.TID 0000.0001) // =======================================================
(PID.TID 0000.0001) // Begin AD_MONITOR ptracer field statistics
(PID.TID 0000.0001) // =======================================================
(PID.TID 0000.0001) %MON ad_trcstat_adptracer01_max   =   0.0000000000000E+00
(PID.TID 0000.0001) %MON ad_trcstat_adptracer01_min   =   0.0000000000000E+00
(PID.TID 0000.0001) %MON ad_trcstat_adptracer01_mean  =   0.0000000000000E+00
(PID.TID 0000.0001) %MON ad_trcstat_adptracer01_sd    =   0.0000000000000E+00
(PID.TID 0000.0001) %MON ad_trcstat_adptracer01_del2  =   0.0000000000000E+00
(PID.TID 0000.0001) %MON ad_trcstat_adptracer02_max   =   0.0000000000000E+00
(PID.TID 0000.0001) %MON ad_trcstat_adptracer02_min   =   0.0000000000000E+00
(PID.TID 0000.0001) %MON ad_trcstat_adptracer02_mean  =   0.0000000000000E+00
(PID.TID 0000.0001) %MON ad_trcstat_adptracer02_sd    =   0.0000000000000E+00
(PID.TID 0000.0001) %MON ad_trcstat_adptracer02_del2  =   0.0000000000000E+00
(PID.TID 0000.0001) %MON ad_trcstat_adptracer03_max   =   1.2958728434495E-29
(PID.TID 0000.0001) %MON ad_trcstat_adptracer03_min   =  -4.8214806909838E-27
(PID.TID 0000.0001) %MON ad_trcstat_adptracer03_mean  =  -3.4654048625321E-31
(PID.TID 0000.0001) %MON ad_trcstat_adptracer03_sd    =   3.2579475782216E-29
(PID.TID 0000.0001) %MON ad_trcstat_adptracer03_del2  =   2.1067046685855E-31
(PID.TID 0000.0001) %MON ad_trcstat_adptracer04_max   =   1.4545898937301E+04
(PID.TID 0000.0001) %MON ad_trcstat_adptracer04_min   =  -5.7711541668045E+05
(PID.TID 0000.0001) %MON ad_trcstat_adptracer04_mean  =  -5.5354824186751E+03
(PID.TID 0000.0001) %MON ad_trcstat_adptracer04_sd    =   4.9433412785255E+04
(PID.TID 0000.0001) %MON ad_trcstat_adptracer04_del2  =   1.0904831020768E+02
(PID.TID 0000.0001) %MON ad_trcstat_adptracer05_max   =   1.4877476612188E+05
(PID.TID 0000.0001) %MON ad_trcstat_adptracer05_min   =  -3.5948042612498E+03
(PID.TID 0000.0001) %MON ad_trcstat_adptracer05_mean  =   1.4307885376320E+03
(PID.TID 0000.0001) %MON ad_trcstat_adptracer05_sd    =   1.2780428841641E+04
(PID.TID 0000.0001) %MON ad_trcstat_adptracer05_del2  =   2.8253486216324E+01
(PID.TID 0000.0001) %MON ad_trcstat_adptracer06_max   =   3.3519563161751E+08
(PID.TID 0000.0001) %MON ad_trcstat_adptracer06_min   =  -3.0004269656380E+08
(PID.TID 0000.0001) %MON ad_trcstat_adptracer06_mean  =   2.3943154136844E+04
(PID.TID 0000.0001) %MON ad_trcstat_adptracer06_sd    =   1.4268476208374E+07
(PID.TID 0000.0001) %MON ad_trcstat_adptracer06_del2  =   6.6101737811068E+04
(PID.TID 0000.0001) %MON ad_trcstat_adptracer07_max   =   0.0000000000000E+00
(PID.TID 0000.0001) %MON ad_trcstat_adptracer07_min   =   0.0000000000000E+00
(PID.TID 0000.0001) %MON ad_trcstat_adptracer07_mean  =   0.0000000000000E+00
(PID.TID 0000.0001) %MON ad_trcstat_adptracer07_sd    =   0.0000000000000E+00
(PID.TID 0000.0001) %MON ad_trcstat_adptracer07_del2  =   0.0000000000000E+00
(PID.TID 0000.0001) %MON ad_trcstat_adptracer08_max   =   0.0000000000000E+00
(PID.TID 0000.0001) %MON ad_trcstat_adptracer08_min   =   0.0000000000000E+00
(PID.TID 0000.0001) %MON ad_trcstat_adptracer08_mean  =   0.0000000000000E+00
(PID.TID 0000.0001) %MON ad_trcstat_adptracer08_sd    =   0.0000000000000E+00
(PID.TID 0000.0001) %MON ad_trcstat_adptracer08_del2  =   0.0000000000000E+00
(PID.TID 0000.0001) %MON ad_trcstat_adptracer09_max   =   0.0000000000000E+00
(PID.TID 0000.0001) %MON ad_trcstat_adptracer09_min   =   0.0000000000000E+00
(PID.TID 0000.0001) %MON ad_trcstat_adptracer09_mean  =   0.0000000000000E+00
(PID.TID 0000.0001) %MON ad_trcstat_adptracer09_sd    =   0.0000000000000E+00
(PID.TID 0000.0001) %MON ad_trcstat_adptracer09_del2  =   0.0000000000000E+00
(PID.TID 0000.0001) // =======================================================
(PID.TID 0000.0001) // End AD_MONITOR ptracer field statistics
(PID.TID 0000.0001) // =======================================================
 cg2d: Sum(rhs),rhsMax =  -1.23054279355057E-12  7.34331280334483E-03
 cg2d: Sum(rhs),rhsMax =  -1.07403195670486E-07  8.44400005002514E+00
 cg2d: Sum(rhs),rhsMax =  -1.07355681677745E-07  8.44772317018264E+00
 cg2d: Sum(rhs),rhsMax =  -1.24448888527695E-07  8.45159731392390E+00
 cg2d: Sum(rhs),rhsMax =  -1.43228790068191E-12  7.28603515289053E-03
 cg2d: Sum(rhs),rhsMax =  -1.07403195670486E-07  8.44400005002514E+00
 cg2d: Sum(rhs),rhsMax =   1.47555010698852E-06  8.44772342497251E+00
 cg2d: Sum(rhs),rhsMax =  -1.63964013468409E-12  7.22474465385861E-03
 cg2d: Sum(rhs),rhsMax =  -1.07403074878221E-07  8.44400005013055E+00
 cg2d: Sum(rhs),rhsMax =  -1.79353402721366E-12  7.21649417798869E-03
 cg2d: Sum(rhs),rhsMax =  -2.44783471714527E-07  8.51897418323859E+00
 cg2d: Sum(rhs),rhsMax =  -2.44957739425899E-07  8.51294224856493E+00
 cg2d: Sum(rhs),rhsMax =  -2.45131850817870E-07  8.50690564885983E+00
 cg2d: Sum(rhs),rhsMax =  -2.45306104318388E-07  8.50087010325378E+00
 cg2d: Sum(rhs),rhsMax =  -2.45480840987966E-07  8.49484030788981E+00
 cg2d: Sum(rhs),rhsMax =  -2.45655421338142E-07  8.48882091652209E+00
 cg2d: Sum(rhs),rhsMax =  -2.45829966161182E-07  8.48281648598470E+00
 cg2d: Sum(rhs),rhsMax =  -2.46003693860075E-07  8.47683141604414E+00
 cg2d: Sum(rhs),rhsMax =  -2.46177087603883E-07  8.47086986481543E+00
 cg2d: Sum(rhs),rhsMax =  -2.46350516874827E-07  8.46493565647207E+00
 EXTERNAL_FIELDS_LOAD, it=   3600570 : Reading new data, i0,i1=   10   11 (prev=    9   12 )
 DIC_FIELDS_LOAD, it=   3600570 : Reading new data, i0,i1=   10   11 (prev=    9   10 )
 cg2d: Sum(rhs),rhsMax =  -2.46522958491369E-07  8.45903217397129E+00
 cg2d: Sum(rhs),rhsMax =  -2.46693353744831E-07  8.45319776100662E+00
 cg2d: Sum(rhs),rhsMax =  -2.46861752373206E-07  8.44745780781015E+00
 cg2d: Sum(rhs),rhsMax =  -2.47026463284783E-07  8.44183689308228E+00
 cg2d: Sum(rhs),rhsMax =  -2.47187230684176E-07  8.43635808123200E+00
 cg2d: Sum(rhs),rhsMax =  -2.47343706405445E-07  8.43104233122613E+00
 cg2d: Sum(rhs),rhsMax =  -2.47495002270171E-07  8.42590806033104E+00
 cg2d: Sum(rhs),rhsMax =  -2.47640862482967E-07  8.42097079337588E+00
 cg2d: Sum(rhs),rhsMax =  -2.47780199913450E-07  8.41624287670950E+00
 cg2d: Sum(rhs),rhsMax =  -2.47913433781832E-07  8.41173327531019E+00
 cg2d: Sum(rhs),rhsMax =  -2.48040628036961E-07  8.40744751803125E+00
 cg2d: Sum(rhs),rhsMax =  -2.48160993976398E-07  8.40338776690083E+00
 cg2d: Sum(rhs),rhsMax =  -2.48274659497838E-07  8.39955295260282E+00
 cg2d: Sum(rhs),rhsMax =  -2.48382001188929E-07  8.39593904397255E+00
 cg2d: Sum(rhs),rhsMax =  -2.48483310372194E-07  8.39253935780259E+00
 cg2d: Sum(rhs),rhsMax =  -2.48578452044512E-07  8.38934486115791E+00
 cg2d: Sum(rhs),rhsMax =  -2.48667660684987E-07  8.38634455564178E+00
 cg2d: Sum(rhs),rhsMax =  -2.48751881315457E-07  8.38352593271183E+00
 cg2d: Sum(rhs),rhsMax =  -2.48830964721947E-07  8.38087545512510E+00
 cg2d: Sum(rhs),rhsMax =  -2.48905820399159E-07  8.37837910210342E+00
 cg2d: Sum(rhs),rhsMax =  -2.48976242289700E-07  8.37602295704436E+00
 cg2d: Sum(rhs),rhsMax =  -2.49042699351776E-07  8.37379380797618E+00
 cg2d: Sum(rhs),rhsMax =  -2.49106562932866E-07  8.37167959361354E+00
 cg2d: Sum(rhs),rhsMax =  -2.49166241417242E-07  8.36966926830838E+00
 cg2d: Sum(rhs),rhsMax =  -2.49223795378839E-07  8.36775333408158E+00
 cg2d: Sum(rhs),rhsMax =  -2.49279089814536E-07  8.36592380342866E+00
 cg2d: Sum(rhs),rhsMax =  -2.49331364443606E-07  8.36417416133343E+00
 cg2d: Sum(rhs),rhsMax =  -2.49381677974725E-07  8.36249928728285E+00
 cg2d: Sum(rhs),rhsMax =  -2.49429696452808E-07  8.36089538401903E+00
 cg2d: Sum(rhs),rhsMax =  -2.49476237002000E-07  8.35935991281295E+00
 cg2d: Sum(rhs),rhsMax =  -2.49520162753925E-07  8.35789146030961E+00
 cg2d: Sum(rhs),rhsMax =  -2.49562525311831E-07  8.35648964985200E+00
 cg2d: Sum(rhs),rhsMax =  -2.49602841506658E-07  8.35515513914879E+00
 cg2d: Sum(rhs),rhsMax =  -2.49640748961610E-07  8.35388971117527E+00
 cg2d: Sum(rhs),rhsMax =  -2.49676844532587E-07  8.35269628610801E+00
 cg2d: Sum(rhs),rhsMax =  -2.49710517152835E-07  8.35157887088272E+00
 cg2d: Sum(rhs),rhsMax =  -2.49741731295217E-07  8.35054250509572E+00
 cg2d: Sum(rhs),rhsMax =  -2.49770394589177E-07  8.34959323059716E+00
 cg2d: Sum(rhs),rhsMax =  -2.49796435980443E-07  8.34873810769870E+00
 cg2d: Sum(rhs),rhsMax =  -2.49819045450295E-07  8.34798512227025E+00
 cg2d: Sum(rhs),rhsMax =  -2.49838244315015E-07  8.34734290261435E+00
 cg2d: Sum(rhs),rhsMax =  -2.49853975731185E-07  8.34682030367283E+00
 cg2d: Sum(rhs),rhsMax =  -2.49866459967052E-07  8.34642602050246E+00
 cg2d: Sum(rhs),rhsMax =  -2.49874005930906E-07  8.34616833018179E+00
 cg2d: Sum(rhs),rhsMax =  -2.49877167846080E-07  8.34605492416921E+00
 cg2d: Sum(rhs),rhsMax =  -2.49876372038216E-07  8.34609271647880E+00
 cg2d: Sum(rhs),rhsMax =  -2.49870495849791E-07  8.34628766951383E+00
 cg2d: Sum(rhs),rhsMax =  -2.49859972711874E-07  8.34664465917166E+00
 cg2d: Sum(rhs),rhsMax =  -2.49844404720534E-07  8.34716735659488E+00
 cg2d: Sum(rhs),rhsMax =  -2.49823550291239E-07  8.34785810988885E+00
 cg2d: Sum(rhs),rhsMax =  -2.49798063123308E-07  8.34871787621402E+00
 cg2d: Sum(rhs),rhsMax =  -2.49766976878618E-07  8.34974617920463E+00
 cg2d: Sum(rhs),rhsMax =  -2.49731257895291E-07  8.35094113608330E+00
 cg2d: Sum(rhs),rhsMax =  -2.49690643272515E-07  8.35229948619608E+00
 cg2d: Sum(rhs),rhsMax =  -2.49645175642854E-07  8.35381675511217E+00
 cg2d: Sum(rhs),rhsMax =  -2.49595025536564E-07  8.35548736188202E+00
 cg2d: Sum(rhs),rhsMax =  -2.49540875074672E-07  8.35730476743729E+00
 cg2d: Sum(rhs),rhsMax =  -2.49482035030724E-07  8.35926164070414E+00
 cg2d: Sum(rhs),rhsMax =  -2.49419819908780E-07  8.36135002375845E+00
 cg2d: Sum(rhs),rhsMax =  -2.49353568904098E-07  8.36356151790629E+00
 EXTERNAL_FIELDS_LOAD, it=   3600630 : Reading new data, i0,i1=   11   12 (prev=   10   11 )
 DIC_FIELDS_LOAD, it=   3600630 : Reading new data, i0,i1=   11   12 (prev=   10   11 )
 cg2d: Sum(rhs),rhsMax =  -2.49283999664840E-07  8.36588746134833E+00
 cg2d: Sum(rhs),rhsMax =  -2.49212149583400E-07  8.36830171267966E+00
 cg2d: Sum(rhs),rhsMax =  -2.49137990238069E-07  8.37078382670868E+00
 cg2d: Sum(rhs),rhsMax =  -2.49062694024360E-07  8.37331347128018E+00
 cg2d: Sum(rhs),rhsMax =  -2.48986417261676E-07  8.37587083487809E+00
 cg2d: Sum(rhs),rhsMax =  -2.48910055233864E-07  8.37843890797547E+00
 cg2d: Sum(rhs),rhsMax =  -2.48833615046351E-07  8.38100282447941E+00
 cg2d: Sum(rhs),rhsMax =  -2.48757785925591E-07  8.38355008718710E+00
 cg2d: Sum(rhs),rhsMax =  -2.48682930248378E-07  8.38607101327765E+00
 cg2d: Sum(rhs),rhsMax =  -2.48608408526252E-07  8.38855886249661E+00
 cg2d: Sum(rhs),rhsMax =  -2.48536004221478E-07  8.39100987040112E+00
 cg2d: Sum(rhs),rhsMax =  -2.48464210983457E-07  8.39342320470582E+00
 cg2d: Sum(rhs),rhsMax =  -2.48393547508385E-07  8.39580086228628E+00
 cg2d: Sum(rhs),rhsMax =  -2.48323665630323E-07  8.39814747768731E+00
 cg2d: Sum(rhs),rhsMax =  -2.48254892198929E-07  8.40047003473604E+00
 cg2d: Sum(rhs),rhsMax =  -2.48186310614074E-07  8.40277751423481E+00
 cg2d: Sum(rhs),rhsMax =  -2.48117892454047E-07  8.40508048455822E+00
 cg2d: Sum(rhs),rhsMax =  -2.48049687456842E-07  8.40739063604165E+00
 cg2d: Sum(rhs),rhsMax =  -2.47980871392883E-07  8.40972032300375E+00
 cg2d: Sum(rhs),rhsMax =  -2.47910648454308E-07  8.41208213189281E+00
 cg2d: Sum(rhs),rhsMax =   7.00208602211205E-08  8.41448818309607E+00
 cg2d: Sum(rhs),rhsMax =   7.00003042197750E-08  8.41694976091120E+00
 cg2d: Sum(rhs),rhsMax =   6.99795563718908E-08  8.41947828345632E+00
 cg2d: Sum(rhs),rhsMax =   6.99578706075954E-08  8.42209678008807E+00
 cg2d: Sum(rhs),rhsMax =   6.99355524602652E-08  8.42482082063079E+00
 cg2d: Sum(rhs),rhsMax =   6.99119127034464E-08  8.42766419021787E+00
 cg2d: Sum(rhs),rhsMax =   6.98873421356438E-08  8.43063873132740E+00
 cg2d: Sum(rhs),rhsMax =   6.98612012683952E-08  8.43375397425920E+00
 cg2d: Sum(rhs),rhsMax =   6.98344706506759E-08  8.43701699598454E+00
 cg2d: Sum(rhs),rhsMax =   6.98062692094936E-08  8.44043232595327E+00
 cg2d: Sum(rhs),rhsMax =   7.00208602211205E-08  8.41448818309607E+00
 cg2d: Sum(rhs),rhsMax =   7.00003042197750E-08  8.41694976091120E+00
 cg2d: Sum(rhs),rhsMax =   6.99795563718908E-08  8.41947828345632E+00
 cg2d: Sum(rhs),rhsMax =   6.99578706075954E-08  8.42209678008807E+00
 cg2d: Sum(rhs),rhsMax =   6.99355524602652E-08  8.42482082063079E+00
 cg2d: Sum(rhs),rhsMax =   6.99119127034464E-08  8.42766419021787E+00
 cg2d: Sum(rhs),rhsMax =   6.98873421356438E-08  8.43063873132740E+00
 cg2d: Sum(rhs),rhsMax =   6.98612012683952E-08  8.43375397425920E+00
 cg2d: Sum(rhs),rhsMax =   6.98344706506759E-08  8.43701699598454E+00
 cg2d: Sum(rhs),rhsMax =   1.75765352850021E-06  8.44043210434952E+00
 cg2d: Sum(rhs),rhsMax =  -1.99440249336108E-12  7.22983599800792E-03
 cg2d: Sum(rhs),rhsMax =   7.00208602211205E-08  8.41448818309607E+00
 cg2d: Sum(rhs),rhsMax =   7.00003042197750E-08  8.41694976091120E+00
 cg2d: Sum(rhs),rhsMax =   6.99795563718908E-08  8.41947828345632E+00
 cg2d: Sum(rhs),rhsMax =   6.99578706075954E-08  8.42209678008807E+00
 cg2d: Sum(rhs),rhsMax =   6.99355524602652E-08  8.42482082063079E+00
 cg2d: Sum(rhs),rhsMax =   6.99119127034464E-08  8.42766419021787E+00
 cg2d: Sum(rhs),rhsMax =   6.98873421356438E-08  8.43063873132740E+00
 cg2d: Sum(rhs),rhsMax =   6.98612012683952E-08  8.43375397425920E+00
 cg2d: Sum(rhs),rhsMax =  -2.52602930572721E-07  8.43701697707771E+00
 cg2d: Sum(rhs),rhsMax =  -2.16781746633504E-12  7.24534864113504E-03
 cg2d: Sum(rhs),rhsMax =   7.00208602211205E-08  8.41448818309607E+00
 cg2d: Sum(rhs),rhsMax =   7.00003042197750E-08  8.41694976091120E+00
 cg2d: Sum(rhs),rhsMax =   6.99795563718908E-08  8.41947828345632E+00
 cg2d: Sum(rhs),rhsMax =   6.99578706075954E-08  8.42209678008807E+00
 cg2d: Sum(rhs),rhsMax =   6.99355524602652E-08  8.42482082063079E+00
 cg2d: Sum(rhs),rhsMax =   6.99119127034464E-08  8.42766419021787E+00
 cg2d: Sum(rhs),rhsMax =   6.98873421356438E-08  8.43063873132740E+00
 cg2d: Sum(rhs),rhsMax =   5.08735737980714E-08  8.43375430118292E+00
 cg2d: Sum(rhs),rhsMax =  -2.24758513395814E-12  7.22932240792153E-03
 cg2d: Sum(rhs),rhsMax =   7.00208602211205E-08  8.41448818309607E+00
 cg2d: Sum(rhs),rhsMax =   7.00003042197750E-08  8.41694976091120E+00
 cg2d: Sum(rhs),rhsMax =   6.99795563718908E-08  8.41947828345632E+00
 cg2d: Sum(rhs),rhsMax =   6.99578706075954E-08  8.42209678008807E+00
 cg2d: Sum(rhs),rhsMax =   6.99355524602652E-08  8.42482082063079E+00
 cg2d: Sum(rhs),rhsMax =   6.99119127034464E-08  8.42766419021787E+00
 cg2d: Sum(rhs),rhsMax =   1.30408016474348E-06  8.43063881432150E+00
 cg2d: Sum(rhs),rhsMax =  -2.51270471172526E-12  7.17399396966813E-03
 cg2d: Sum(rhs),rhsMax =   7.00208602211205E-08  8.41448818309607E+00
 cg2d: Sum(rhs),rhsMax =   7.00003042197750E-08  8.41694976091120E+00
 cg2d: Sum(rhs),rhsMax =   6.99795563718908E-08  8.41947828345632E+00
 cg2d: Sum(rhs),rhsMax =   6.99578706075954E-08  8.42209678008807E+00
 cg2d: Sum(rhs),rhsMax =   6.99355524602652E-08  8.42482082063079E+00
 cg2d: Sum(rhs),rhsMax =  -9.87665202956123E-08  8.42766437599990E+00
 cg2d: Sum(rhs),rhsMax =  -2.46640735450127E-12  7.61217354432726E-03
 cg2d: Sum(rhs),rhsMax =   7.00208602211205E-08  8.41448818309607E+00
 cg2d: Sum(rhs),rhsMax =   7.00003042197750E-08  8.41694976091120E+00
 cg2d: Sum(rhs),rhsMax =   6.99795563718908E-08  8.41947828345632E+00
 cg2d: Sum(rhs),rhsMax =   6.99578706075954E-08  8.42209678008807E+00
 cg2d: Sum(rhs),rhsMax =   2.26428419125568E-07  8.42482082150591E+00
 cg2d: Sum(rhs),rhsMax =  -2.33438039677538E-12  8.32562964741257E-03
 cg2d: Sum(rhs),rhsMax =   7.00208602211205E-08  8.41448818309607E+00
 cg2d: Sum(rhs),rhsMax =   7.00003042197750E-08  8.41694976091120E+00
 cg2d: Sum(rhs),rhsMax =   6.99795563718908E-08  8.41947828345632E+00
 cg2d: Sum(rhs),rhsMax =   5.48647271614300E-07  8.42209684020400E+00
 cg2d: Sum(rhs),rhsMax =  -2.45276650552573E-12  8.48832595822840E-03
 cg2d: Sum(rhs),rhsMax =   7.00208602211205E-08  8.41448818309607E+00
 cg2d: Sum(rhs),rhsMax =   7.00003042197750E-08  8.41694976091120E+00
 cg2d: Sum(rhs),rhsMax =   6.58287177657257E-07  8.41947866308814E+00
 cg2d: Sum(rhs),rhsMax =  -2.60162112122528E-12  8.39181374546253E-03
 cg2d: Sum(rhs),rhsMax =   7.00208602211205E-08  8.41448818309607E+00
 cg2d: Sum(rhs),rhsMax =  -1.51693665628727E-06  8.41694971085801E+00
 cg2d: Sum(rhs),rhsMax =  -2.79642064712760E-12  8.28250788699540E-03
 cg2d: Sum(rhs),rhsMax =   7.00202633652225E-08  8.41448818279705E+00
 cg2d: Sum(rhs),rhsMax =  -2.89603313118753E-12  8.24738473682190E-03
 cg2d: Sum(rhs),rhsMax =  -2.44783471714527E-07  8.51897418323859E+00
 cg2d: Sum(rhs),rhsMax =  -2.44957739425899E-07  8.51294224856493E+00
 cg2d: Sum(rhs),rhsMax =  -2.45131850817870E-07  8.50690564885983E+00
 cg2d: Sum(rhs),rhsMax =  -2.45306104318388E-07  8.50087010325378E+00
 cg2d: Sum(rhs),rhsMax =  -2.45480840987966E-07  8.49484030788981E+00
 cg2d: Sum(rhs),rhsMax =  -2.45655421338142E-07  8.48882091652209E+00
 cg2d: Sum(rhs),rhsMax =  -2.45829966161182E-07  8.48281648598470E+00
 cg2d: Sum(rhs),rhsMax =  -2.46003693860075E-07  8.47683141604414E+00
 cg2d: Sum(rhs),rhsMax =  -2.46177087603883E-07  8.47086986481543E+00
 cg2d: Sum(rhs),rhsMax =  -2.46350516874827E-07  8.46493565647207E+00
 EXTERNAL_FIELDS_LOAD, it=   3600570 : Reading new data, i0,i1=   10   11 (prev=    9   12 )
 DIC_FIELDS_LOAD, it=   3600570 : Reading new data, i0,i1=   10   11 (prev=    9   10 )
 cg2d: Sum(rhs),rhsMax =  -2.46522958491369E-07  8.45903217397129E+00
 cg2d: Sum(rhs),rhsMax =  -2.46693353744831E-07  8.45319776100662E+00
 cg2d: Sum(rhs),rhsMax =  -2.46861752373206E-07  8.44745780781015E+00
 cg2d: Sum(rhs),rhsMax =  -2.47026463284783E-07  8.44183689308228E+00
 cg2d: Sum(rhs),rhsMax =  -2.47187230684176E-07  8.43635808123200E+00
 cg2d: Sum(rhs),rhsMax =  -2.47343706405445E-07  8.43104233122613E+00
 cg2d: Sum(rhs),rhsMax =  -2.47495002270171E-07  8.42590806033104E+00
 cg2d: Sum(rhs),rhsMax =  -2.47640862482967E-07  8.42097079337588E+00
 cg2d: Sum(rhs),rhsMax =  -2.47780199913450E-07  8.41624287670950E+00
 cg2d: Sum(rhs),rhsMax =  -2.47913433781832E-07  8.41173327531019E+00
 cg2d: Sum(rhs),rhsMax =  -2.48040628036961E-07  8.40744751803125E+00
 cg2d: Sum(rhs),rhsMax =  -2.48160993976398E-07  8.40338776690083E+00
 cg2d: Sum(rhs),rhsMax =  -2.48274659497838E-07  8.39955295260282E+00
 cg2d: Sum(rhs),rhsMax =  -2.48382001188929E-07  8.39593904397255E+00
 cg2d: Sum(rhs),rhsMax =  -2.48483310372194E-07  8.39253935780259E+00
 cg2d: Sum(rhs),rhsMax =  -2.48578452044512E-07  8.38934486115791E+00
 cg2d: Sum(rhs),rhsMax =  -2.48667660684987E-07  8.38634455564178E+00
 cg2d: Sum(rhs),rhsMax =  -2.48751881315457E-07  8.38352593271183E+00
 cg2d: Sum(rhs),rhsMax =  -2.48830964721947E-07  8.38087545512510E+00
 cg2d: Sum(rhs),rhsMax =  -2.48905820399159E-07  8.37837910210342E+00
 cg2d: Sum(rhs),rhsMax =  -2.48976242289700E-07  8.37602295704436E+00
 cg2d: Sum(rhs),rhsMax =  -2.49042699351776E-07  8.37379380797618E+00
 cg2d: Sum(rhs),rhsMax =  -2.49106562932866E-07  8.37167959361354E+00
 cg2d: Sum(rhs),rhsMax =  -2.49166241417242E-07  8.36966926830838E+00
 cg2d: Sum(rhs),rhsMax =  -2.49223795378839E-07  8.36775333408158E+00
 cg2d: Sum(rhs),rhsMax =  -2.49279089814536E-07  8.36592380342866E+00
 cg2d: Sum(rhs),rhsMax =  -2.49331364443606E-07  8.36417416133343E+00
 cg2d: Sum(rhs),rhsMax =  -2.49381677974725E-07  8.36249928728285E+00
 cg2d: Sum(rhs),rhsMax =  -2.49429696452808E-07  8.36089538401903E+00
 cg2d: Sum(rhs),rhsMax =  -2.49476237002000E-07  8.35935991281295E+00
 cg2d: Sum(rhs),rhsMax =  -2.49520162753925E-07  8.35789146030961E+00
 cg2d: Sum(rhs),rhsMax =  -2.49562525311831E-07  8.35648964985200E+00
 cg2d: Sum(rhs),rhsMax =  -2.49602841506658E-07  8.35515513914879E+00
 cg2d: Sum(rhs),rhsMax =  -2.49640748961610E-07  8.35388971117527E+00
 cg2d: Sum(rhs),rhsMax =  -2.49676844532587E-07  8.35269628610801E+00
 cg2d: Sum(rhs),rhsMax =  -2.49710517152835E-07  8.35157887088272E+00
 cg2d: Sum(rhs),rhsMax =  -2.49741731295217E-07  8.35054250509572E+00
 cg2d: Sum(rhs),rhsMax =  -2.49770394589177E-07  8.34959323059716E+00
 cg2d: Sum(rhs),rhsMax =  -2.49796435980443E-07  8.34873810769870E+00
 cg2d: Sum(rhs),rhsMax =  -2.49819045450295E-07  8.34798512227025E+00
 cg2d: Sum(rhs),rhsMax =  -2.49838244315015E-07  8.34734290261435E+00
 cg2d: Sum(rhs),rhsMax =  -2.49853975731185E-07  8.34682030367283E+00
 cg2d: Sum(rhs),rhsMax =  -2.49866459967052E-07  8.34642602050246E+00
 cg2d: Sum(rhs),rhsMax =  -2.49874005930906E-07  8.34616833018179E+00
 cg2d: Sum(rhs),rhsMax =  -2.49877167846080E-07  8.34605492416921E+00
 cg2d: Sum(rhs),rhsMax =  -2.49876372038216E-07  8.34609271647880E+00
 cg2d: Sum(rhs),rhsMax =  -2.49870495849791E-07  8.34628766951383E+00
 cg2d: Sum(rhs),rhsMax =  -2.49859972711874E-07  8.34664465917166E+00
 cg2d: Sum(rhs),rhsMax =  -2.49844404720534E-07  8.34716735659488E+00
 cg2d: Sum(rhs),rhsMax =  -2.49823550291239E-07  8.34785810988885E+00
 cg2d: Sum(rhs),rhsMax =  -2.49798063123308E-07  8.34871787621402E+00
 cg2d: Sum(rhs),rhsMax =  -2.49766976878618E-07  8.34974617920463E+00
 cg2d: Sum(rhs),rhsMax =  -2.49731257895291E-07  8.35094113608330E+00
 cg2d: Sum(rhs),rhsMax =  -2.49690643272515E-07  8.35229948619608E+00
 cg2d: Sum(rhs),rhsMax =  -2.49645175642854E-07  8.35381675511217E+00
 cg2d: Sum(rhs),rhsMax =  -2.49595025536564E-07  8.35548736188202E+00
 cg2d: Sum(rhs),rhsMax =  -2.49540875074672E-07  8.35730476743729E+00
 cg2d: Sum(rhs),rhsMax =  -2.49482035030724E-07  8.35926164070414E+00
 cg2d: Sum(rhs),rhsMax =  -2.49419819908780E-07  8.36135002375845E+00
 cg2d: Sum(rhs),rhsMax =  -2.49353568904098E-07  8.36356151790629E+00
 EXTERNAL_FIELDS_LOAD, it=   3600630 : Reading new data, i0,i1=   11   12 (prev=   10   11 )
 DIC_FIELDS_LOAD, it=   3600630 : Reading new data, i0,i1=   11   12 (prev=   10   11 )
 cg2d: Sum(rhs),rhsMax =  -2.49283999664840E-07  8.36588746134833E+00
 cg2d: Sum(rhs),rhsMax =  -2.49212149583400E-07  8.36830171267966E+00
 cg2d: Sum(rhs),rhsMax =  -2.49137990238069E-07  8.37078382670868E+00
 cg2d: Sum(rhs),rhsMax =  -2.49062694024360E-07  8.37331347128018E+00
 cg2d: Sum(rhs),rhsMax =  -2.48986417261676E-07  8.37587083487809E+00
 cg2d: Sum(rhs),rhsMax =  -2.48910055233864E-07  8.37843890797547E+00
 cg2d: Sum(rhs),rhsMax =  -2.48833615046351E-07  8.38100282447941E+00
 cg2d: Sum(rhs),rhsMax =  -2.48757785925591E-07  8.38355008718710E+00
 cg2d: Sum(rhs),rhsMax =  -2.48682930248378E-07  8.38607101327765E+00
 cg2d: Sum(rhs),rhsMax =  -2.48608408526252E-07  8.38855886249661E+00
 cg2d: Sum(rhs),rhsMax =  -1.06353345330490E-06  8.39100972813768E+00
 cg2d: Sum(rhs),rhsMax =  -1.06322734438891E-06  8.39342303423861E+00
 cg2d: Sum(rhs),rhsMax =  -1.06292596768753E-06  8.39580062641410E+00
 cg2d: Sum(rhs),rhsMax =  -1.06262878318830E-06  8.39814715234474E+00
 cg2d: Sum(rhs),rhsMax =  -1.06233456875771E-06  8.40046961575471E+00
 cg2d: Sum(rhs),rhsMax =  -1.06204224437079E-06  8.40277701474433E+00
 cg2d: Sum(rhs),rhsMax =  -1.06175127001507E-06  8.40507992920294E+00
 cg2d: Sum(rhs),rhsMax =  -1.06145939327007E-06  8.40739005546822E+00
 cg2d: Sum(rhs),rhsMax =  -1.06116472409212E-06  8.40971974935540E+00
 cg2d: Sum(rhs),rhsMax =  -1.06086660878191E-06  8.41208159521526E+00
 cg2d: Sum(rhs),rhsMax =  -1.06353345330490E-06  8.39100972813768E+00
 cg2d: Sum(rhs),rhsMax =  -1.06322734438891E-06  8.39342303423861E+00
 cg2d: Sum(rhs),rhsMax =  -1.06292596768753E-06  8.39580062641410E+00
 cg2d: Sum(rhs),rhsMax =  -1.06262878318830E-06  8.39814715234474E+00
 cg2d: Sum(rhs),rhsMax =  -1.06233456875771E-06  8.40046961575471E+00
 cg2d: Sum(rhs),rhsMax =  -1.06204224437079E-06  8.40277701474433E+00
 cg2d: Sum(rhs),rhsMax =  -1.06175127001507E-06  8.40507992920294E+00
 cg2d: Sum(rhs),rhsMax =  -1.06145939327007E-06  8.40739005546822E+00
 cg2d: Sum(rhs),rhsMax =  -1.06116472409212E-06  8.40971974935540E+00
 cg2d: Sum(rhs),rhsMax =  -1.24854840066746E-06  8.41208149311986E+00
 cg2d: Sum(rhs),rhsMax =  -3.13678624090999E-12  8.23122064381424E-03
 cg2d: Sum(rhs),rhsMax =  -1.06353345330490E-06  8.39100972813768E+00
 cg2d: Sum(rhs),rhsMax =  -1.06322734438891E-06  8.39342303423861E+00
 cg2d: Sum(rhs),rhsMax =  -1.06292596768753E-06  8.39580062641410E+00
 cg2d: Sum(rhs),rhsMax =  -1.06262878318830E-06  8.39814715234474E+00
 cg2d: Sum(rhs),rhsMax =  -1.06233456875771E-06  8.40046961575471E+00
 cg2d: Sum(rhs),rhsMax =  -1.06204224437079E-06  8.40277701474433E+00
 cg2d: Sum(rhs),rhsMax =  -1.06175127001507E-06  8.40507992920294E+00
 cg2d: Sum(rhs),rhsMax =  -1.06145939327007E-06  8.40739005546822E+00
 cg2d: Sum(rhs),rhsMax =  -1.02733345386241E-06  8.40971941478324E+00
 cg2d: Sum(rhs),rhsMax =  -3.28621689322378E-12  8.18479209807287E-03
 cg2d: Sum(rhs),rhsMax =  -1.06353345330490E-06  8.39100972813768E+00
 cg2d: Sum(rhs),rhsMax =  -1.06322734438891E-06  8.39342303423861E+00
 cg2d: Sum(rhs),rhsMax =  -1.06292596768753E-06  8.39580062641410E+00
 cg2d: Sum(rhs),rhsMax =  -1.06262878318830E-06  8.39814715234474E+00
 cg2d: Sum(rhs),rhsMax =  -1.06233456875771E-06  8.40046961575471E+00
 cg2d: Sum(rhs),rhsMax =  -1.06204224437079E-06  8.40277701474433E+00
 cg2d: Sum(rhs),rhsMax =  -1.06175127001507E-06  8.40507992920294E+00
 cg2d: Sum(rhs),rhsMax =  -1.42687980542178E-07  8.40738990791553E+00
 cg2d: Sum(rhs),rhsMax =  -3.02797023565837E-12  9.16713942021296E-03
 cg2d: Sum(rhs),rhsMax =  -1.06353345330490E-06  8.39100972813768E+00
 cg2d: Sum(rhs),rhsMax =  -1.06322734438891E-06  8.39342303423861E+00
 cg2d: Sum(rhs),rhsMax =  -1.06292596768753E-06  8.39580062641410E+00
 cg2d: Sum(rhs),rhsMax =  -1.06262878318830E-06  8.39814715234474E+00
 cg2d: Sum(rhs),rhsMax =  -1.06233456875771E-06  8.40046961575471E+00
 cg2d: Sum(rhs),rhsMax =  -1.06204224437079E-06  8.40277701474433E+00
 cg2d: Sum(rhs),rhsMax =  -2.36624440930200E-06  8.40508014432839E+00
 cg2d: Sum(rhs),rhsMax =  -2.87973204310399E-12  1.00931041641673E-02
 cg2d: Sum(rhs),rhsMax =  -1.06353345330490E-06  8.39100972813768E+00
 cg2d: Sum(rhs),rhsMax =  -1.06322734438891E-06  8.39342303423861E+00
 cg2d: Sum(rhs),rhsMax =  -1.06292596768753E-06  8.39580062641410E+00
 cg2d: Sum(rhs),rhsMax =  -1.06262878318830E-06  8.39814715234474E+00
 cg2d: Sum(rhs),rhsMax =  -1.06233456875771E-06  8.40046961575471E+00
 cg2d: Sum(rhs),rhsMax =   1.94404364606271E-07  8.40277689508891E+00
 cg2d: Sum(rhs),rhsMax =  -3.19954024212421E-12  9.58617425091832E-03
 cg2d: Sum(rhs),rhsMax =  -1.06353345330490E-06  8.39100972813768E+00
 cg2d: Sum(rhs),rhsMax =  -1.06322734438891E-06  8.39342303423861E+00
 cg2d: Sum(rhs),rhsMax =  -1.06292596768753E-06  8.39580062641410E+00
 cg2d: Sum(rhs),rhsMax =  -1.06262878318830E-06  8.39814715234474E+00
 cg2d: Sum(rhs),rhsMax =  -2.05642784578686E-06  8.40046955328182E+00
 cg2d: Sum(rhs),rhsMax =  -3.56528207564460E-12  9.08360456200754E-03
 cg2d: Sum(rhs),rhsMax =  -1.06353345330490E-06  8.39100972813768E+00
 cg2d: Sum(rhs),rhsMax =  -1.06322734438891E-06  8.39342303423861E+00
 cg2d: Sum(rhs),rhsMax =  -1.06292596768753E-06  8.39580062641410E+00
 cg2d: Sum(rhs),rhsMax =  -1.70226677909113E-06  8.39814704648498E+00
 cg2d: Sum(rhs),rhsMax =  -3.72496391370936E-12  8.91560936173312E-03
 cg2d: Sum(rhs),rhsMax =  -1.06353345330490E-06  8.39100972813768E+00
 cg2d: Sum(rhs),rhsMax =  -1.06322734438891E-06  8.39342303423861E+00
 cg2d: Sum(rhs),rhsMax =  -2.84224855562343E-06  8.39580026890544E+00
 cg2d: Sum(rhs),rhsMax =  -4.14214192459572E-12  8.71428445843376E-03
 cg2d: Sum(rhs),rhsMax =  -1.06353345330490E-06  8.39100972813768E+00
 cg2d: Sum(rhs),rhsMax =  -1.54870951263320E-06  8.39342284703358E+00
 cg2d: Sum(rhs),rhsMax =  -4.31726074161254E-12  8.58867104314256E-03
 cg2d: Sum(rhs),rhsMax =  -1.06353324724751E-06  8.39100972790063E+00
 cg2d: Sum(rhs),rhsMax =  -4.14929874313630E-12  9.35789021965031E-03
 cg2d: Sum(rhs),rhsMax =  -2.44783471714527E-07  8.51897418323859E+00
 cg2d: Sum(rhs),rhsMax =  -2.44957739425899E-07  8.51294224856493E+00
 cg2d: Sum(rhs),rhsMax =  -2.45131850817870E-07  8.50690564885983E+00
 cg2d: Sum(rhs),rhsMax =  -2.45306104318388E-07  8.50087010325378E+00
 cg2d: Sum(rhs),rhsMax =  -2.45480840987966E-07  8.49484030788981E+00
 cg2d: Sum(rhs),rhsMax =  -2.45655421338142E-07  8.48882091652209E+00
 cg2d: Sum(rhs),rhsMax =  -2.45829966161182E-07  8.48281648598470E+00
 cg2d: Sum(rhs),rhsMax =  -2.46003693860075E-07  8.47683141604414E+00
 cg2d: Sum(rhs),rhsMax =  -2.46177087603883E-07  8.47086986481543E+00
 cg2d: Sum(rhs),rhsMax =  -2.46350516874827E-07  8.46493565647207E+00
 EXTERNAL_FIELDS_LOAD, it=   3600570 : Reading new data, i0,i1=   10   11 (prev=    9   12 )
 DIC_FIELDS_LOAD, it=   3600570 : Reading new data, i0,i1=   10   11 (prev=    9   10 )
 cg2d: Sum(rhs),rhsMax =  -2.46522958491369E-07  8.45903217397129E+00
 cg2d: Sum(rhs),rhsMax =  -2.46693353744831E-07  8.45319776100662E+00
 cg2d: Sum(rhs),rhsMax =  -2.46861752373206E-07  8.44745780781015E+00
 cg2d: Sum(rhs),rhsMax =  -2.47026463284783E-07  8.44183689308228E+00
 cg2d: Sum(rhs),rhsMax =  -2.47187230684176E-07  8.43635808123200E+00
 cg2d: Sum(rhs),rhsMax =  -2.47343706405445E-07  8.43104233122613E+00
 cg2d: Sum(rhs),rhsMax =  -2.47495002270171E-07  8.42590806033104E+00
 cg2d: Sum(rhs),rhsMax =  -2.47640862482967E-07  8.42097079337588E+00
 cg2d: Sum(rhs),rhsMax =  -2.47780199913450E-07  8.41624287670950E+00
 cg2d: Sum(rhs),rhsMax =  -2.47913433781832E-07  8.41173327531019E+00
 cg2d: Sum(rhs),rhsMax =  -2.48040628036961E-07  8.40744751803125E+00
 cg2d: Sum(rhs),rhsMax =  -2.48160993976398E-07  8.40338776690083E+00
 cg2d: Sum(rhs),rhsMax =  -2.48274659497838E-07  8.39955295260282E+00
 cg2d: Sum(rhs),rhsMax =  -2.48382001188929E-07  8.39593904397255E+00
 cg2d: Sum(rhs),rhsMax =  -2.48483310372194E-07  8.39253935780259E+00
 cg2d: Sum(rhs),rhsMax =  -2.48578452044512E-07  8.38934486115791E+00
 cg2d: Sum(rhs),rhsMax =  -2.48667660684987E-07  8.38634455564178E+00
 cg2d: Sum(rhs),rhsMax =  -2.48751881315457E-07  8.38352593271183E+00
 cg2d: Sum(rhs),rhsMax =  -2.48830964721947E-07  8.38087545512510E+00
 cg2d: Sum(rhs),rhsMax =  -2.48905820399159E-07  8.37837910210342E+00
 cg2d: Sum(rhs),rhsMax =  -2.48976242289700E-07  8.37602295704436E+00
 cg2d: Sum(rhs),rhsMax =  -2.49042699351776E-07  8.37379380797618E+00
 cg2d: Sum(rhs),rhsMax =  -2.49106562932866E-07  8.37167959361354E+00
 cg2d: Sum(rhs),rhsMax =  -2.49166241417242E-07  8.36966926830838E+00
 cg2d: Sum(rhs),rhsMax =  -2.49223795378839E-07  8.36775333408158E+00
 cg2d: Sum(rhs),rhsMax =  -2.49279089814536E-07  8.36592380342866E+00
 cg2d: Sum(rhs),rhsMax =  -2.49331364443606E-07  8.36417416133343E+00
 cg2d: Sum(rhs),rhsMax =  -2.49381677974725E-07  8.36249928728285E+00
 cg2d: Sum(rhs),rhsMax =  -2.49429696452808E-07  8.36089538401903E+00
 cg2d: Sum(rhs),rhsMax =  -2.49476237002000E-07  8.35935991281295E+00
 cg2d: Sum(rhs),rhsMax =  -2.49520162753925E-07  8.35789146030961E+00
 cg2d: Sum(rhs),rhsMax =  -2.49562525311831E-07  8.35648964985200E+00
 cg2d: Sum(rhs),rhsMax =  -2.49602841506658E-07  8.35515513914879E+00
 cg2d: Sum(rhs),rhsMax =  -2.49640748961610E-07  8.35388971117527E+00
 cg2d: Sum(rhs),rhsMax =  -2.49676844532587E-07  8.35269628610801E+00
 cg2d: Sum(rhs),rhsMax =  -2.49710517152835E-07  8.35157887088272E+00
 cg2d: Sum(rhs),rhsMax =  -2.49741731295217E-07  8.35054250509572E+00
 cg2d: Sum(rhs),rhsMax =  -2.49770394589177E-07  8.34959323059716E+00
 cg2d: Sum(rhs),rhsMax =  -2.49796435980443E-07  8.34873810769870E+00
 cg2d: Sum(rhs),rhsMax =  -2.49819045450295E-07  8.34798512227025E+00
 cg2d: Sum(rhs),rhsMax =  -2.49838244315015E-07  8.34734290261435E+00
 cg2d: Sum(rhs),rhsMax =  -2.49853975731185E-07  8.34682030367283E+00
 cg2d: Sum(rhs),rhsMax =  -2.49866459967052E-07  8.34642602050246E+00
 cg2d: Sum(rhs),rhsMax =  -2.49874005930906E-07  8.34616833018179E+00
 cg2d: Sum(rhs),rhsMax =  -2.49877167846080E-07  8.34605492416921E+00
 cg2d: Sum(rhs),rhsMax =  -2.49876372038216E-07  8.34609271647880E+00
 cg2d: Sum(rhs),rhsMax =  -2.49870495849791E-07  8.34628766951383E+00
 cg2d: Sum(rhs),rhsMax =  -2.49859972711874E-07  8.34664465917166E+00
 cg2d: Sum(rhs),rhsMax =  -2.49844404720534E-07  8.34716735659488E+00
 cg2d: Sum(rhs),rhsMax =  -2.49823550291239E-07  8.34785810988885E+00
 cg2d: Sum(rhs),rhsMax =  -2.49798063123308E-07  8.34871787621402E+00
 cg2d: Sum(rhs),rhsMax =  -2.49766976878618E-07  8.34974617920463E+00
 cg2d: Sum(rhs),rhsMax =  -2.49731257895291E-07  8.35094113608330E+00
 cg2d: Sum(rhs),rhsMax =  -2.49690643272515E-07  8.35229948619608E+00
 cg2d: Sum(rhs),rhsMax =  -2.49645175642854E-07  8.35381675511217E+00
 cg2d: Sum(rhs),rhsMax =  -2.49595025536564E-07  8.35548736188202E+00
 cg2d: Sum(rhs),rhsMax =  -2.49540875074672E-07  8.35730476743729E+00
 cg2d: Sum(rhs),rhsMax =  -2.49482035030724E-07  8.35926164070414E+00
 cg2d: Sum(rhs),rhsMax =  -2.49419819908780E-07  8.36135002375845E+00
 cg2d: Sum(rhs),rhsMax =  -2.49353568904098E-07  8.36356151790629E+00
 EXTERNAL_FIELDS_LOAD, it=   3600630 : Reading new data, i0,i1=   11   12 (prev=   10   11 )
 DIC_FIELDS_LOAD, it=   3600630 : Reading new data, i0,i1=   11   12 (prev=   10   11 )
 cg2d: Sum(rhs),rhsMax =   2.98078234095556E-07  8.36588737228906E+00
 cg2d: Sum(rhs),rhsMax =   2.97992777120726E-07  8.36830163939247E+00
 cg2d: Sum(rhs),rhsMax =   2.97904236390423E-07  8.37078378881340E+00
 cg2d: Sum(rhs),rhsMax =   2.97814182204093E-07  8.37331348820911E+00
 cg2d: Sum(rhs),rhsMax =   2.97723950382078E-07  8.37587092260938E+00
 cg2d: Sum(rhs),rhsMax =   2.97632460899422E-07  8.37843906923641E+00
 cg2d: Sum(rhs),rhsMax =   2.97541490112962E-07  8.38100305630508E+00
 cg2d: Sum(rhs),rhsMax =   2.97451528297188E-07  8.38355038333294E+00
 cg2d: Sum(rhs),rhsMax =   2.97362049650474E-07  8.38607136741706E+00
 cg2d: Sum(rhs),rhsMax =   2.97274326044317E-07  8.38855927034672E+00
 EXTERNAL_FIELDS_LOAD, it=   3600630 : Reading new data, i0,i1=   11   12 (prev=   10   12 )
 DIC_FIELDS_LOAD, it=   3600630 : Reading new data, i0,i1=   11   12 (prev=   10   11 )
 cg2d: Sum(rhs),rhsMax =   2.98078234095556E-07  8.36588737228906E+00
 cg2d: Sum(rhs),rhsMax =   2.97992777120726E-07  8.36830163939247E+00
 cg2d: Sum(rhs),rhsMax =   2.97904236390423E-07  8.37078378881340E+00
 cg2d: Sum(rhs),rhsMax =   2.97814182204093E-07  8.37331348820911E+00
 cg2d: Sum(rhs),rhsMax =   2.97723950382078E-07  8.37587092260938E+00
 cg2d: Sum(rhs),rhsMax =   2.97632460899422E-07  8.37843906923641E+00
 cg2d: Sum(rhs),rhsMax =   2.97541490112962E-07  8.38100305630508E+00
 cg2d: Sum(rhs),rhsMax =   2.97451528297188E-07  8.38355038333294E+00
 cg2d: Sum(rhs),rhsMax =   2.97362049650474E-07  8.38607136741706E+00
 cg2d: Sum(rhs),rhsMax =   2.60369915849878E-07  8.38855963800536E+00
 cg2d: Sum(rhs),rhsMax =  -4.24207717564240E-12  9.52459930110168E-03
 EXTERNAL_FIELDS_LOAD, it=   3600630 : Reading new data, i0,i1=   11   12 (prev=   10   12 )
 DIC_FIELDS_LOAD, it=   3600630 : Reading new data, i0,i1=   11   12 (prev=   10   11 )
 cg2d: Sum(rhs),rhsMax =   2.98078234095556E-07  8.36588737228906E+00
 cg2d: Sum(rhs),rhsMax =   2.97992777120726E-07  8.36830163939247E+00
 cg2d: Sum(rhs),rhsMax =   2.97904236390423E-07  8.37078378881340E+00
 cg2d: Sum(rhs),rhsMax =   2.97814182204093E-07  8.37331348820911E+00
 cg2d: Sum(rhs),rhsMax =   2.97723950382078E-07  8.37587092260938E+00
 cg2d: Sum(rhs),rhsMax =   2.97632460899422E-07  8.37843906923641E+00
 cg2d: Sum(rhs),rhsMax =   2.97541490112962E-07  8.38100305630508E+00
 cg2d: Sum(rhs),rhsMax =   2.97451528297188E-07  8.38355038333294E+00
 cg2d: Sum(rhs),rhsMax =  -1.42911957823344E-08  8.38607111268374E+00
 cg2d: Sum(rhs),rhsMax =  -4.52491603214478E-12  9.37470460268902E-03
 EXTERNAL_FIELDS_LOAD, it=   3600630 : Reading new data, i0,i1=   11   12 (prev=   10   12 )
 DIC_FIELDS_LOAD, it=   3600630 : Reading new data, i0,i1=   11   12 (prev=   10   11 )
 cg2d: Sum(rhs),rhsMax =   2.98078234095556E-07  8.36588737228906E+00
 cg2d: Sum(rhs),rhsMax =   2.97992777120726E-07  8.36830163939247E+00
 cg2d: Sum(rhs),rhsMax =   2.97904236390423E-07  8.37078378881340E+00
 cg2d: Sum(rhs),rhsMax =   2.97814182204093E-07  8.37331348820911E+00
 cg2d: Sum(rhs),rhsMax =   2.97723950382078E-07  8.37587092260938E+00
 cg2d: Sum(rhs),rhsMax =   2.97632460899422E-07  8.37843906923641E+00
 cg2d: Sum(rhs),rhsMax =   2.97541490112962E-07  8.38100305630508E+00
 cg2d: Sum(rhs),rhsMax =  -9.22375079426274E-07  8.38355054471143E+00
 cg2d: Sum(rhs),rhsMax =  -4.75676616151777E-12  9.20945328304546E-03
 EXTERNAL_FIELDS_LOAD, it=   3600630 : Reading new data, i0,i1=   11   12 (prev=   10   12 )
 DIC_FIELDS_LOAD, it=   3600630 : Reading new data, i0,i1=   11   12 (prev=   10   11 )
 cg2d: Sum(rhs),rhsMax =   2.98078234095556E-07  8.36588737228906E+00
 cg2d: Sum(rhs),rhsMax =   2.97992777120726E-07  8.36830163939247E+00
 cg2d: Sum(rhs),rhsMax =   2.97904236390423E-07  8.37078378881340E+00
 cg2d: Sum(rhs),rhsMax =   2.97814182204093E-07  8.37331348820911E+00
 cg2d: Sum(rhs),rhsMax =   2.97723950382078E-07  8.37587092260938E+00
 cg2d: Sum(rhs),rhsMax =   2.97632460899422E-07  8.37843906923641E+00
 cg2d: Sum(rhs),rhsMax =   1.13538252577428E-06  8.38100288978786E+00
 cg2d: Sum(rhs),rhsMax =  -5.04621951863404E-12  9.24989283797933E-03
 EXTERNAL_FIELDS_LOAD, it=   3600630 : Reading new data, i0,i1=   11   12 (prev=   10   12 )
 DIC_FIELDS_LOAD, it=   3600630 : Reading new data, i0,i1=   11   12 (prev=   10   11 )
 cg2d: Sum(rhs),rhsMax =   2.98078234095556E-07  8.36588737228906E+00
 cg2d: Sum(rhs),rhsMax =   2.97992777120726E-07  8.36830163939247E+00
 cg2d: Sum(rhs),rhsMax =   2.97904236390423E-07  8.37078378881340E+00
 cg2d: Sum(rhs),rhsMax =   2.97814182204093E-07  8.37331348820911E+00
 cg2d: Sum(rhs),rhsMax =   2.97723950382078E-07  8.37587092260938E+00
 cg2d: Sum(rhs),rhsMax =   1.81382769426364E-06  8.37843873744747E+00
 cg2d: Sum(rhs),rhsMax =  -5.04713892207631E-12  9.22622854376458E-03
 EXTERNAL_FIELDS_LOAD, it=   3600630 : Reading new data, i0,i1=   11   12 (prev=   10   12 )
 DIC_FIELDS_LOAD, it=   3600630 : Reading new data, i0,i1=   11   12 (prev=   10   11 )
 cg2d: Sum(rhs),rhsMax =   2.98078234095556E-07  8.36588737228906E+00
 cg2d: Sum(rhs),rhsMax =   2.97992777120726E-07  8.36830163939247E+00
 cg2d: Sum(rhs),rhsMax =   2.97904236390423E-07  8.37078378881340E+00
 cg2d: Sum(rhs),rhsMax =   2.97814182204093E-07  8.37331348820911E+00
 cg2d: Sum(rhs),rhsMax =   1.08946584020941E-06  8.37587066769015E+00
 cg2d: Sum(rhs),rhsMax =  -5.06268030969759E-12  9.27068491463018E-03
 EXTERNAL_FIELDS_LOAD, it=   3600630 : Reading new data, i0,i1=   11   12 (prev=   10   12 )
 DIC_FIELDS_LOAD, it=   3600630 : Reading new data, i0,i1=   11   12 (prev=   10   11 )
 cg2d: Sum(rhs),rhsMax =   2.98078234095556E-07  8.36588737228906E+00
 cg2d: Sum(rhs),rhsMax =   2.97992777120726E-07  8.36830163939247E+00
 cg2d: Sum(rhs),rhsMax =   2.97904236390423E-07  8.37078378881340E+00
 cg2d: Sum(rhs),rhsMax =   1.08541470211776E-06  8.37331378187367E+00
 cg2d: Sum(rhs),rhsMax =  -4.93818137423108E-12  9.46586875690008E-03
 EXTERNAL_FIELDS_LOAD, it=   3600630 : Reading new data, i0,i1=   11   12 (prev=   10   12 )
 DIC_FIELDS_LOAD, it=   3600630 : Reading new data, i0,i1=   11   12 (prev=   10   11 )
 cg2d: Sum(rhs),rhsMax =   2.98078234095556E-07  8.36588737228906E+00
 cg2d: Sum(rhs),rhsMax =   2.97992777120726E-07  8.36830163939247E+00
 cg2d: Sum(rhs),rhsMax =   3.16419587420569E-07  8.37078417344949E+00
 cg2d: Sum(rhs),rhsMax =  -4.92027599219291E-12  9.64509911924770E-03
 EXTERNAL_FIELDS_LOAD, it=   3600630 : Reading new data, i0,i1=   11   12 (prev=   10   12 )
 DIC_FIELDS_LOAD, it=   3600630 : Reading new data, i0,i1=   11   12 (prev=   10   11 )
 cg2d: Sum(rhs),rhsMax =   2.98078234095556E-07  8.36588737228906E+00
 cg2d: Sum(rhs),rhsMax =  -2.16514685291713E-07  8.36830170171172E+00
 cg2d: Sum(rhs),rhsMax =  -4.94660258934521E-12  9.55691088423985E-03
 EXTERNAL_FIELDS_LOAD, it=   3600630 : Reading new data, i0,i1=   11   12 (prev=   10   12 )
 DIC_FIELDS_LOAD, it=   3600630 : Reading new data, i0,i1=   11   12 (prev=   10   11 )
 cg2d: Sum(rhs),rhsMax =   2.98078191462992E-07  8.36588737269576E+00
 cg2d: Sum(rhs),rhsMax =  -4.70000297361772E-12  9.94991024130369E-03
 cg2d: Sum(rhs),rhsMax =  -2.44783471714527E-07  8.51897418323859E+00
 cg2d: Sum(rhs),rhsMax =  -2.44957739425899E-07  8.51294224856493E+00
 cg2d: Sum(rhs),rhsMax =  -2.45131850817870E-07  8.50690564885983E+00
 cg2d: Sum(rhs),rhsMax =  -2.45306104318388E-07  8.50087010325378E+00
 cg2d: Sum(rhs),rhsMax =  -2.45480840987966E-07  8.49484030788981E+00
 cg2d: Sum(rhs),rhsMax =  -2.45655421338142E-07  8.48882091652209E+00
 cg2d: Sum(rhs),rhsMax =  -2.45829966161182E-07  8.48281648598470E+00
 cg2d: Sum(rhs),rhsMax =  -2.46003693860075E-07  8.47683141604414E+00
 cg2d: Sum(rhs),rhsMax =  -2.46177087603883E-07  8.47086986481543E+00
 cg2d: Sum(rhs),rhsMax =  -2.46350516874827E-07  8.46493565647207E+00
 EXTERNAL_FIELDS_LOAD, it=   3600570 : Reading new data, i0,i1=   10   11 (prev=    9   12 )
 DIC_FIELDS_LOAD, it=   3600570 : Reading new data, i0,i1=   10   11 (prev=    9   10 )
 cg2d: Sum(rhs),rhsMax =  -2.46522958491369E-07  8.45903217397129E+00
 cg2d: Sum(rhs),rhsMax =  -2.46693353744831E-07  8.45319776100662E+00
 cg2d: Sum(rhs),rhsMax =  -2.46861752373206E-07  8.44745780781015E+00
 cg2d: Sum(rhs),rhsMax =  -2.47026463284783E-07  8.44183689308228E+00
 cg2d: Sum(rhs),rhsMax =  -2.47187230684176E-07  8.43635808123200E+00
 cg2d: Sum(rhs),rhsMax =  -2.47343706405445E-07  8.43104233122613E+00
 cg2d: Sum(rhs),rhsMax =  -2.47495002270171E-07  8.42590806033104E+00
 cg2d: Sum(rhs),rhsMax =  -2.47640862482967E-07  8.42097079337588E+00
 cg2d: Sum(rhs),rhsMax =  -2.47780199913450E-07  8.41624287670950E+00
 cg2d: Sum(rhs),rhsMax =  -2.47913433781832E-07  8.41173327531019E+00
 cg2d: Sum(rhs),rhsMax =  -2.48040628036961E-07  8.40744751803125E+00
 cg2d: Sum(rhs),rhsMax =  -2.48160993976398E-07  8.40338776690083E+00
 cg2d: Sum(rhs),rhsMax =  -2.48274659497838E-07  8.39955295260282E+00
 cg2d: Sum(rhs),rhsMax =  -2.48382001188929E-07  8.39593904397255E+00
 cg2d: Sum(rhs),rhsMax =  -2.48483310372194E-07  8.39253935780259E+00
 cg2d: Sum(rhs),rhsMax =  -2.48578452044512E-07  8.38934486115791E+00
 cg2d: Sum(rhs),rhsMax =  -2.48667660684987E-07  8.38634455564178E+00
 cg2d: Sum(rhs),rhsMax =  -2.48751881315457E-07  8.38352593271183E+00
 cg2d: Sum(rhs),rhsMax =  -2.48830964721947E-07  8.38087545512510E+00
 cg2d: Sum(rhs),rhsMax =  -2.48905820399159E-07  8.37837910210342E+00
 cg2d: Sum(rhs),rhsMax =  -2.48976242289700E-07  8.37602295704436E+00
 cg2d: Sum(rhs),rhsMax =  -2.49042699351776E-07  8.37379380797618E+00
 cg2d: Sum(rhs),rhsMax =  -2.49106562932866E-07  8.37167959361354E+00
 cg2d: Sum(rhs),rhsMax =  -2.49166241417242E-07  8.36966926830838E+00
 cg2d: Sum(rhs),rhsMax =  -2.49223795378839E-07  8.36775333408158E+00
 cg2d: Sum(rhs),rhsMax =  -2.49279089814536E-07  8.36592380342866E+00
 cg2d: Sum(rhs),rhsMax =  -2.49331364443606E-07  8.36417416133343E+00
 cg2d: Sum(rhs),rhsMax =  -2.49381677974725E-07  8.36249928728285E+00
 cg2d: Sum(rhs),rhsMax =  -2.49429696452808E-07  8.36089538401903E+00
 cg2d: Sum(rhs),rhsMax =  -2.49476237002000E-07  8.35935991281295E+00
 cg2d: Sum(rhs),rhsMax =  -2.49520162753925E-07  8.35789146030961E+00
 cg2d: Sum(rhs),rhsMax =  -2.49562525311831E-07  8.35648964985200E+00
 cg2d: Sum(rhs),rhsMax =  -2.49602841506658E-07  8.35515513914879E+00
 cg2d: Sum(rhs),rhsMax =  -2.49640748961610E-07  8.35388971117527E+00
 cg2d: Sum(rhs),rhsMax =  -2.49676844532587E-07  8.35269628610801E+00
 cg2d: Sum(rhs),rhsMax =  -2.49710517152835E-07  8.35157887088272E+00
 cg2d: Sum(rhs),rhsMax =  -2.49741731295217E-07  8.35054250509572E+00
 cg2d: Sum(rhs),rhsMax =  -2.49770394589177E-07  8.34959323059716E+00
 cg2d: Sum(rhs),rhsMax =  -2.49796435980443E-07  8.34873810769870E+00
 cg2d: Sum(rhs),rhsMax =  -2.49819045450295E-07  8.34798512227025E+00
 cg2d: Sum(rhs),rhsMax =  -2.49838244315015E-07  8.34734290261435E+00
 cg2d: Sum(rhs),rhsMax =  -2.49853975731185E-07  8.34682030367283E+00
 cg2d: Sum(rhs),rhsMax =  -2.49866459967052E-07  8.34642602050246E+00
 cg2d: Sum(rhs),rhsMax =  -2.49874005930906E-07  8.34616833018179E+00
 cg2d: Sum(rhs),rhsMax =  -2.49877167846080E-07  8.34605492416921E+00
 cg2d: Sum(rhs),rhsMax =  -2.49876372038216E-07  8.34609271647880E+00
 cg2d: Sum(rhs),rhsMax =  -2.49870495849791E-07  8.34628766951383E+00
 cg2d: Sum(rhs),rhsMax =  -2.49859972711874E-07  8.34664465917166E+00
 cg2d: Sum(rhs),rhsMax =  -2.49844404720534E-07  8.34716735659488E+00
 cg2d: Sum(rhs),rhsMax =  -2.49823550291239E-07  8.34785810988885E+00
 cg2d: Sum(rhs),rhsMax =  -1.18165753804078E-06  8.34871803741579E+00
 cg2d: Sum(rhs),rhsMax =  -1.18151203309935E-06  8.34974630699695E+00
 cg2d: Sum(rhs),rhsMax =  -1.18134294524452E-06  8.35094119282531E+00
 cg2d: Sum(rhs),rhsMax =  -1.18115079317249E-06  8.35229942614562E+00
 cg2d: Sum(rhs),rhsMax =  -1.18093601741975E-06  8.35381652484115E+00
 cg2d: Sum(rhs),rhsMax =  -1.18069993959580E-06  8.35548690411215E+00
 cg2d: Sum(rhs),rhsMax =  -1.18044316366195E-06  8.35730402808331E+00
 cg2d: Sum(rhs),rhsMax =  -1.18016692596257E-06  8.35926057573076E+00
 cg2d: Sum(rhs),rhsMax =  -1.17987207914894E-06  8.36134860316334E+00
 cg2d: Sum(rhs),rhsMax =  -1.17956016509879E-06  8.36355972628024E+00
 cg2d: Sum(rhs),rhsMax =  -1.18165753804078E-06  8.34871803741579E+00
 cg2d: Sum(rhs),rhsMax =  -1.18151203309935E-06  8.34974630699695E+00
 cg2d: Sum(rhs),rhsMax =  -1.18134294524452E-06  8.35094119282531E+00
 cg2d: Sum(rhs),rhsMax =  -1.18115079317249E-06  8.35229942614562E+00
 cg2d: Sum(rhs),rhsMax =  -1.18093601741975E-06  8.35381652484115E+00
 cg2d: Sum(rhs),rhsMax =  -1.18069993959580E-06  8.35548690411215E+00
 cg2d: Sum(rhs),rhsMax =  -1.18044316366195E-06  8.35730402808331E+00
 cg2d: Sum(rhs),rhsMax =  -1.18016692596257E-06  8.35926057573076E+00
 cg2d: Sum(rhs),rhsMax =  -1.17987207914894E-06  8.36134860316334E+00
 cg2d: Sum(rhs),rhsMax =  -1.31931884794767E-06  8.36355937827355E+00
 cg2d: Sum(rhs),rhsMax =  -4.41960574040778E-12  1.08199519832666E-02
 cg2d: Sum(rhs),rhsMax =  -1.18165753804078E-06  8.34871803741579E+00
 cg2d: Sum(rhs),rhsMax =  -1.18151203309935E-06  8.34974630699695E+00
 cg2d: Sum(rhs),rhsMax =  -1.18134294524452E-06  8.35094119282531E+00
 cg2d: Sum(rhs),rhsMax =  -1.18115079317249E-06  8.35229942614562E+00
 cg2d: Sum(rhs),rhsMax =  -1.18093601741975E-06  8.35381652484115E+00
 cg2d: Sum(rhs),rhsMax =  -1.18069993959580E-06  8.35548690411215E+00
 cg2d: Sum(rhs),rhsMax =  -1.18044316366195E-06  8.35730402808331E+00
 cg2d: Sum(rhs),rhsMax =  -1.18016692596257E-06  8.35926057573076E+00
 cg2d: Sum(rhs),rhsMax =  -6.15924534486112E-07  8.36134830998030E+00
 cg2d: Sum(rhs),rhsMax =  -4.55466263662996E-12  1.11027066415543E-02
 cg2d: Sum(rhs),rhsMax =  -1.18165753804078E-06  8.34871803741579E+00
 cg2d: Sum(rhs),rhsMax =  -1.18151203309935E-06  8.34974630699695E+00
 cg2d: Sum(rhs),rhsMax =  -1.18134294524452E-06  8.35094119282531E+00
 cg2d: Sum(rhs),rhsMax =  -1.18115079317249E-06  8.35229942614562E+00
 cg2d: Sum(rhs),rhsMax =  -1.18093601741975E-06  8.35381652484115E+00
 cg2d: Sum(rhs),rhsMax =  -1.18069993959580E-06  8.35548690411215E+00
 cg2d: Sum(rhs),rhsMax =  -1.18044316366195E-06  8.35730402808331E+00
 cg2d: Sum(rhs),rhsMax =  -2.69366609018107E-07  8.35926033910000E+00
 cg2d: Sum(rhs),rhsMax =  -4.79453803048369E-12  1.10204523633046E-02
 cg2d: Sum(rhs),rhsMax =  -1.18165753804078E-06  8.34871803741579E+00
 cg2d: Sum(rhs),rhsMax =  -1.18151203309935E-06  8.34974630699695E+00
 cg2d: Sum(rhs),rhsMax =  -1.18134294524452E-06  8.35094119282531E+00
 cg2d: Sum(rhs),rhsMax =  -1.18115079317249E-06  8.35229942614562E+00
 cg2d: Sum(rhs),rhsMax =  -1.18093601741975E-06  8.35381652484115E+00
 cg2d: Sum(rhs),rhsMax =  -1.18069993959580E-06  8.35548690411215E+00
 cg2d: Sum(rhs),rhsMax =  -1.22956602410795E-06  8.35730368694831E+00
 cg2d: Sum(rhs),rhsMax =  -5.14922739863755E-12  1.08705003833150E-02
 cg2d: Sum(rhs),rhsMax =  -1.18165753804078E-06  8.34871803741579E+00
 cg2d: Sum(rhs),rhsMax =  -1.18151203309935E-06  8.34974630699695E+00
 cg2d: Sum(rhs),rhsMax =  -1.18134294524452E-06  8.35094119282531E+00
 cg2d: Sum(rhs),rhsMax =  -1.18115079317249E-06  8.35229942614562E+00
 cg2d: Sum(rhs),rhsMax =  -1.18093601741975E-06  8.35381652484115E+00
 cg2d: Sum(rhs),rhsMax =  -1.88548532520372E-06  8.35548674353171E+00
 cg2d: Sum(rhs),rhsMax =  -5.24285042463601E-12  1.05345272325040E-02
 cg2d: Sum(rhs),rhsMax =  -1.18165753804078E-06  8.34871803741579E+00
 cg2d: Sum(rhs),rhsMax =  -1.18151203309935E-06  8.34974630699695E+00
 cg2d: Sum(rhs),rhsMax =  -1.18134294524452E-06  8.35094119282531E+00
 cg2d: Sum(rhs),rhsMax =  -1.18115079317249E-06  8.35229942614562E+00
 cg2d: Sum(rhs),rhsMax =  -1.33609856334260E-06  8.35381653419693E+00
 cg2d: Sum(rhs),rhsMax =  -5.43500834615518E-12  1.03024861642680E-02
 cg2d: Sum(rhs),rhsMax =  -1.18165753804078E-06  8.34871803741579E+00
 cg2d: Sum(rhs),rhsMax =  -1.18151203309935E-06  8.34974630699695E+00
 cg2d: Sum(rhs),rhsMax =  -1.18134294524452E-06  8.35094119282531E+00
 cg2d: Sum(rhs),rhsMax =  -1.00554308346545E-06  8.35229944382141E+00
 cg2d: Sum(rhs),rhsMax =  -5.31355515143161E-12  1.04217682801321E-02
 cg2d: Sum(rhs),rhsMax =  -1.18165753804078E-06  8.34871803741579E+00
 cg2d: Sum(rhs),rhsMax =  -1.18151203309935E-06  8.34974630699695E+00
 cg2d: Sum(rhs),rhsMax =  -1.95969676042296E-07  8.35094122800104E+00
 cg2d: Sum(rhs),rhsMax =  -5.47417666751926E-12  1.02686053747957E-02
 cg2d: Sum(rhs),rhsMax =  -1.18165753804078E-06  8.34871803741579E+00
 cg2d: Sum(rhs),rhsMax =  -1.44320564032796E-06  8.34974620124985E+00
 cg2d: Sum(rhs),rhsMax =  -5.30439841356367E-12  1.04453402678253E-02
 cg2d: Sum(rhs),rhsMax =  -1.18165771567647E-06  8.34871803741394E+00
 cg2d: Sum(rhs),rhsMax =  -5.35831969072920E-12  1.03754555899627E-02
 cg2d: Sum(rhs),rhsMax =  -2.44783471714527E-07  8.51897418323859E+00
 cg2d: Sum(rhs),rhsMax =  -2.44957739425899E-07  8.51294224856493E+00
 cg2d: Sum(rhs),rhsMax =  -2.45131850817870E-07  8.50690564885983E+00
 cg2d: Sum(rhs),rhsMax =  -2.45306104318388E-07  8.50087010325378E+00
 cg2d: Sum(rhs),rhsMax =  -2.45480840987966E-07  8.49484030788981E+00
 cg2d: Sum(rhs),rhsMax =  -2.45655421338142E-07  8.48882091652209E+00
 cg2d: Sum(rhs),rhsMax =  -2.45829966161182E-07  8.48281648598470E+00
 cg2d: Sum(rhs),rhsMax =  -2.46003693860075E-07  8.47683141604414E+00
 cg2d: Sum(rhs),rhsMax =  -2.46177087603883E-07  8.47086986481543E+00
 cg2d: Sum(rhs),rhsMax =  -2.46350516874827E-07  8.46493565647207E+00
 EXTERNAL_FIELDS_LOAD, it=   3600570 : Reading new data, i0,i1=   10   11 (prev=    9   11 )
 DIC_FIELDS_LOAD, it=   3600570 : Reading new data, i0,i1=   10   11 (prev=    9   10 )
 cg2d: Sum(rhs),rhsMax =  -2.46522958491369E-07  8.45903217397129E+00
 cg2d: Sum(rhs),rhsMax =  -2.46693353744831E-07  8.45319776100662E+00
 cg2d: Sum(rhs),rhsMax =  -2.46861752373206E-07  8.44745780781015E+00
 cg2d: Sum(rhs),rhsMax =  -2.47026463284783E-07  8.44183689308228E+00
 cg2d: Sum(rhs),rhsMax =  -2.47187230684176E-07  8.43635808123200E+00
 cg2d: Sum(rhs),rhsMax =  -2.47343706405445E-07  8.43104233122613E+00
 cg2d: Sum(rhs),rhsMax =  -2.47495002270171E-07  8.42590806033104E+00
 cg2d: Sum(rhs),rhsMax =  -2.47640862482967E-07  8.42097079337588E+00
 cg2d: Sum(rhs),rhsMax =  -2.47780199913450E-07  8.41624287670950E+00
 cg2d: Sum(rhs),rhsMax =  -2.47913433781832E-07  8.41173327531019E+00
 cg2d: Sum(rhs),rhsMax =  -2.48040628036961E-07  8.40744751803125E+00
 cg2d: Sum(rhs),rhsMax =  -2.48160993976398E-07  8.40338776690083E+00
 cg2d: Sum(rhs),rhsMax =  -2.48274659497838E-07  8.39955295260282E+00
 cg2d: Sum(rhs),rhsMax =  -2.48382001188929E-07  8.39593904397255E+00
 cg2d: Sum(rhs),rhsMax =  -2.48483310372194E-07  8.39253935780259E+00
 cg2d: Sum(rhs),rhsMax =  -2.48578452044512E-07  8.38934486115791E+00
 cg2d: Sum(rhs),rhsMax =  -2.48667660684987E-07  8.38634455564178E+00
 cg2d: Sum(rhs),rhsMax =  -2.48751881315457E-07  8.38352593271183E+00
 cg2d: Sum(rhs),rhsMax =  -2.48830964721947E-07  8.38087545512510E+00
 cg2d: Sum(rhs),rhsMax =  -2.48905820399159E-07  8.37837910210342E+00
 cg2d: Sum(rhs),rhsMax =  -2.48976242289700E-07  8.37602295704436E+00
 cg2d: Sum(rhs),rhsMax =  -2.49042699351776E-07  8.37379380797618E+00
 cg2d: Sum(rhs),rhsMax =  -2.49106562932866E-07  8.37167959361354E+00
 cg2d: Sum(rhs),rhsMax =  -2.49166241417242E-07  8.36966926830838E+00
 cg2d: Sum(rhs),rhsMax =  -2.49223795378839E-07  8.36775333408158E+00
 cg2d: Sum(rhs),rhsMax =  -2.49279089814536E-07  8.36592380342866E+00
 cg2d: Sum(rhs),rhsMax =  -2.49331364443606E-07  8.36417416133343E+00
 cg2d: Sum(rhs),rhsMax =  -2.49381677974725E-07  8.36249928728285E+00
 cg2d: Sum(rhs),rhsMax =  -2.49429696452808E-07  8.36089538401903E+00
 cg2d: Sum(rhs),rhsMax =  -2.49476237002000E-07  8.35935991281295E+00
 cg2d: Sum(rhs),rhsMax =  -2.49520162753925E-07  8.35789146030961E+00
 cg2d: Sum(rhs),rhsMax =  -2.49562525311831E-07  8.35648964985200E+00
 cg2d: Sum(rhs),rhsMax =  -2.49602841506658E-07  8.35515513914879E+00
 cg2d: Sum(rhs),rhsMax =  -2.49640748961610E-07  8.35388971117527E+00
 cg2d: Sum(rhs),rhsMax =  -2.49676844532587E-07  8.35269628610801E+00
 cg2d: Sum(rhs),rhsMax =  -2.49710517152835E-07  8.35157887088272E+00
 cg2d: Sum(rhs),rhsMax =  -2.49741731295217E-07  8.35054250509572E+00
 cg2d: Sum(rhs),rhsMax =  -2.49770394589177E-07  8.34959323059716E+00
 cg2d: Sum(rhs),rhsMax =  -2.49796435980443E-07  8.34873810769870E+00
 cg2d: Sum(rhs),rhsMax =  -2.49819045450295E-07  8.34798512227025E+00
 cg2d: Sum(rhs),rhsMax =   1.21465888014427E-06  8.34734284947435E+00
 cg2d: Sum(rhs),rhsMax =   1.21473462399990E-06  8.34682018638386E+00
 cg2d: Sum(rhs),rhsMax =   1.21479225612120E-06  8.34642574937513E+00
 cg2d: Sum(rhs),rhsMax =   1.21482964487996E-06  8.34616782444248E+00
 cg2d: Sum(rhs),rhsMax =   1.21484593051946E-06  8.34605412321316E+00
 cg2d: Sum(rhs),rhsMax =   1.21484065118693E-06  8.34609158111089E+00
 cg2d: Sum(rhs),rhsMax =   1.21481218684494E-06  8.34628617979143E+00
 cg2d: Sum(rhs),rhsMax =   1.21476008274612E-06  8.34664281163511E+00
 cg2d: Sum(rhs),rhsMax =   1.21468415414938E-06  8.34716516182376E+00
 cg2d: Sum(rhs),rhsMax =   1.21458349866543E-06  8.34785559059311E+00
 cg2d: Sum(rhs),rhsMax =   1.21465888014427E-06  8.34734284947435E+00
 cg2d: Sum(rhs),rhsMax =   1.21473462399990E-06  8.34682018638386E+00
 cg2d: Sum(rhs),rhsMax =   1.21479225612120E-06  8.34642574937513E+00
 cg2d: Sum(rhs),rhsMax =   1.21482964487996E-06  8.34616782444248E+00
 cg2d: Sum(rhs),rhsMax =   1.21484593051946E-06  8.34605412321316E+00
 cg2d: Sum(rhs),rhsMax =   1.21484065118693E-06  8.34609158111089E+00
 cg2d: Sum(rhs),rhsMax =   1.21481218684494E-06  8.34628617979143E+00
 cg2d: Sum(rhs),rhsMax =   1.21476008274612E-06  8.34664281163511E+00
 cg2d: Sum(rhs),rhsMax =   1.21468415414938E-06  8.34716516182376E+00
 cg2d: Sum(rhs),rhsMax =   1.08545054899878E-06  8.34785550263767E+00
 cg2d: Sum(rhs),rhsMax =  -5.22543987246937E-12  1.07809669615257E-02
 cg2d: Sum(rhs),rhsMax =   1.21465888014427E-06  8.34734284947435E+00
 cg2d: Sum(rhs),rhsMax =   1.21473462399990E-06  8.34682018638386E+00
 cg2d: Sum(rhs),rhsMax =   1.21479225612120E-06  8.34642574937513E+00
 cg2d: Sum(rhs),rhsMax =   1.21482964487996E-06  8.34616782444248E+00
 cg2d: Sum(rhs),rhsMax =   1.21484593051946E-06  8.34605412321316E+00
 cg2d: Sum(rhs),rhsMax =   1.21484065118693E-06  8.34609158111089E+00
 cg2d: Sum(rhs),rhsMax =   1.21481218684494E-06  8.34628617979143E+00
 cg2d: Sum(rhs),rhsMax =   1.21476008274612E-06  8.34664281163511E+00
 cg2d: Sum(rhs),rhsMax =   1.25146010532262E-06  8.34716515853638E+00
 cg2d: Sum(rhs),rhsMax =  -5.02257003348605E-12  1.12786821613703E-02
 cg2d: Sum(rhs),rhsMax =   1.21465888014427E-06  8.34734284947435E+00
 cg2d: Sum(rhs),rhsMax =   1.21473462399990E-06  8.34682018638386E+00
 cg2d: Sum(rhs),rhsMax =   1.21479225612120E-06  8.34642574937513E+00
 cg2d: Sum(rhs),rhsMax =   1.21482964487996E-06  8.34616782444248E+00
 cg2d: Sum(rhs),rhsMax =   1.21484593051946E-06  8.34605412321316E+00
 cg2d: Sum(rhs),rhsMax =   1.21484065118693E-06  8.34609158111089E+00
 cg2d: Sum(rhs),rhsMax =   1.21481218684494E-06  8.34628617979143E+00
 cg2d: Sum(rhs),rhsMax =   1.01478669023436E-06  8.34664266658976E+00
 cg2d: Sum(rhs),rhsMax =  -4.98400973270030E-12  1.14541151340865E-02
 cg2d: Sum(rhs),rhsMax =   1.21465888014427E-06  8.34734284947435E+00
 cg2d: Sum(rhs),rhsMax =   1.21473462399990E-06  8.34682018638386E+00
 cg2d: Sum(rhs),rhsMax =   1.21479225612120E-06  8.34642574937513E+00
 cg2d: Sum(rhs),rhsMax =   1.21482964487996E-06  8.34616782444248E+00
 cg2d: Sum(rhs),rhsMax =   1.21484593051946E-06  8.34605412321316E+00
 cg2d: Sum(rhs),rhsMax =   1.21484065118693E-06  8.34609158111089E+00
 cg2d: Sum(rhs),rhsMax =   1.39356210127062E-06  8.34628617947403E+00
 cg2d: Sum(rhs),rhsMax =  -4.90050361401373E-12  1.14842005969501E-02
 cg2d: Sum(rhs),rhsMax =   1.21465888014427E-06  8.34734284947435E+00
 cg2d: Sum(rhs),rhsMax =   1.21473462399990E-06  8.34682018638386E+00
 cg2d: Sum(rhs),rhsMax =   1.21479225612120E-06  8.34642574937513E+00
 cg2d: Sum(rhs),rhsMax =   1.21482964487996E-06  8.34616782444248E+00
 cg2d: Sum(rhs),rhsMax =   1.21484593051946E-06  8.34605412321316E+00
 cg2d: Sum(rhs),rhsMax =   5.75420685322570E-07  8.34609141800264E+00
 cg2d: Sum(rhs),rhsMax =  -4.85847386627603E-12  1.15647800056740E-02
 cg2d: Sum(rhs),rhsMax =   1.21465888014427E-06  8.34734284947435E+00
 cg2d: Sum(rhs),rhsMax =   1.21473462399990E-06  8.34682018638386E+00
 cg2d: Sum(rhs),rhsMax =   1.21479225612120E-06  8.34642574937513E+00
 cg2d: Sum(rhs),rhsMax =   1.21482964487996E-06  8.34616782444248E+00
 cg2d: Sum(rhs),rhsMax =   1.29322714315094E-07  8.34605399875139E+00
 cg2d: Sum(rhs),rhsMax =  -4.80995365065295E-12  1.18038881459010E-02
 cg2d: Sum(rhs),rhsMax =   1.21465888014427E-06  8.34734284947435E+00
 cg2d: Sum(rhs),rhsMax =   1.21473462399990E-06  8.34682018638386E+00
 cg2d: Sum(rhs),rhsMax =   1.21479225612120E-06  8.34642574937513E+00
 cg2d: Sum(rhs),rhsMax =   1.97016999692323E-06  8.34616784392623E+00
 cg2d: Sum(rhs),rhsMax =  -4.73663643030253E-12  1.20647363779297E-02
 cg2d: Sum(rhs),rhsMax =   1.21465888014427E-06  8.34734284947435E+00
 cg2d: Sum(rhs),rhsMax =   1.21473462399990E-06  8.34682018638386E+00
 cg2d: Sum(rhs),rhsMax =   2.19000371970424E-06  8.34642594877582E+00
 cg2d: Sum(rhs),rhsMax =  -4.56462298514815E-12  1.22758098203949E-02
 cg2d: Sum(rhs),rhsMax =   1.21465888014427E-06  8.34734284947435E+00
 cg2d: Sum(rhs),rhsMax =   2.28568973881238E-06  8.34682033645505E+00
 cg2d: Sum(rhs),rhsMax =  -4.52100076125950E-12  1.24020158502344E-02
 cg2d: Sum(rhs),rhsMax =   1.21465862434889E-06  8.34734284932736E+00
 cg2d: Sum(rhs),rhsMax =  -4.52396280159473E-12  1.24474235167433E-02
 cg2d: Sum(rhs),rhsMax =  -2.44783471714527E-07  8.51897418323859E+00
 cg2d: Sum(rhs),rhsMax =  -2.44957739425899E-07  8.51294224856493E+00
 cg2d: Sum(rhs),rhsMax =  -2.45131850817870E-07  8.50690564885983E+00
 cg2d: Sum(rhs),rhsMax =  -2.45306104318388E-07  8.50087010325378E+00
 cg2d: Sum(rhs),rhsMax =  -2.45480840987966E-07  8.49484030788981E+00
 cg2d: Sum(rhs),rhsMax =  -2.45655421338142E-07  8.48882091652209E+00
 cg2d: Sum(rhs),rhsMax =  -2.45829966161182E-07  8.48281648598470E+00
 cg2d: Sum(rhs),rhsMax =  -2.46003693860075E-07  8.47683141604414E+00
 cg2d: Sum(rhs),rhsMax =  -2.46177087603883E-07  8.47086986481543E+00
 cg2d: Sum(rhs),rhsMax =  -2.46350516874827E-07  8.46493565647207E+00
 EXTERNAL_FIELDS_LOAD, it=   3600570 : Reading new data, i0,i1=   10   11 (prev=    9   11 )
 DIC_FIELDS_LOAD, it=   3600570 : Reading new data, i0,i1=   10   11 (prev=    9   10 )
 cg2d: Sum(rhs),rhsMax =  -2.46522958491369E-07  8.45903217397129E+00
 cg2d: Sum(rhs),rhsMax =  -2.46693353744831E-07  8.45319776100662E+00
 cg2d: Sum(rhs),rhsMax =  -2.46861752373206E-07  8.44745780781015E+00
 cg2d: Sum(rhs),rhsMax =  -2.47026463284783E-07  8.44183689308228E+00
 cg2d: Sum(rhs),rhsMax =  -2.47187230684176E-07  8.43635808123200E+00
 cg2d: Sum(rhs),rhsMax =  -2.47343706405445E-07  8.43104233122613E+00
 cg2d: Sum(rhs),rhsMax =  -2.47495002270171E-07  8.42590806033104E+00
 cg2d: Sum(rhs),rhsMax =  -2.47640862482967E-07  8.42097079337588E+00
 cg2d: Sum(rhs),rhsMax =  -2.47780199913450E-07  8.41624287670950E+00
 cg2d: Sum(rhs),rhsMax =  -2.47913433781832E-07  8.41173327531019E+00
 cg2d: Sum(rhs),rhsMax =  -2.48040628036961E-07  8.40744751803125E+00
 cg2d: Sum(rhs),rhsMax =  -2.48160993976398E-07  8.40338776690083E+00
 cg2d: Sum(rhs),rhsMax =  -2.48274659497838E-07  8.39955295260282E+00
 cg2d: Sum(rhs),rhsMax =  -2.48382001188929E-07  8.39593904397255E+00
 cg2d: Sum(rhs),rhsMax =  -2.48483310372194E-07  8.39253935780259E+00
 cg2d: Sum(rhs),rhsMax =  -2.48578452044512E-07  8.38934486115791E+00
 cg2d: Sum(rhs),rhsMax =  -2.48667660684987E-07  8.38634455564178E+00
 cg2d: Sum(rhs),rhsMax =  -2.48751881315457E-07  8.38352593271183E+00
 cg2d: Sum(rhs),rhsMax =  -2.48830964721947E-07  8.38087545512510E+00
 cg2d: Sum(rhs),rhsMax =  -2.48905820399159E-07  8.37837910210342E+00
 cg2d: Sum(rhs),rhsMax =  -2.48976242289700E-07  8.37602295704436E+00
 cg2d: Sum(rhs),rhsMax =  -2.49042699351776E-07  8.37379380797618E+00
 cg2d: Sum(rhs),rhsMax =  -2.49106562932866E-07  8.37167959361354E+00
 cg2d: Sum(rhs),rhsMax =  -2.49166241417242E-07  8.36966926830838E+00
 cg2d: Sum(rhs),rhsMax =  -2.49223795378839E-07  8.36775333408158E+00
 cg2d: Sum(rhs),rhsMax =  -2.49279089814536E-07  8.36592380342866E+00
 cg2d: Sum(rhs),rhsMax =  -2.49331364443606E-07  8.36417416133343E+00
 cg2d: Sum(rhs),rhsMax =  -2.49381677974725E-07  8.36249928728285E+00
 cg2d: Sum(rhs),rhsMax =  -2.49429696452808E-07  8.36089538401903E+00
 cg2d: Sum(rhs),rhsMax =  -2.49476237002000E-07  8.35935991281295E+00
 cg2d: Sum(rhs),rhsMax =   1.99897741026689E-07  8.35789137326595E+00
 cg2d: Sum(rhs),rhsMax =   1.99931214694971E-07  8.35648958946059E+00
 cg2d: Sum(rhs),rhsMax =   1.99962642000173E-07  8.35515512675482E+00
 cg2d: Sum(rhs),rhsMax =   1.99992683747041E-07  8.35388976408931E+00
 cg2d: Sum(rhs),rhsMax =   2.00021098351044E-07  8.35269642172535E+00
 cg2d: Sum(rhs),rhsMax =   2.00047509224532E-07  8.35157910928809E+00
 cg2d: Sum(rhs),rhsMax =   2.00072307166010E-07  8.35054286708354E+00
 cg2d: Sum(rhs),rhsMax =   2.00094540048212E-07  8.34959373340554E+00
 cg2d: Sum(rhs),rhsMax =   2.00114726567335E-07  8.34873876151094E+00
 cg2d: Sum(rhs),rhsMax =   2.00132973304790E-07  8.34798592867877E+00
 cg2d: Sum(rhs),rhsMax =   1.99897741026689E-07  8.35789137326595E+00
 cg2d: Sum(rhs),rhsMax =   1.99931214694971E-07  8.35648958946059E+00
 cg2d: Sum(rhs),rhsMax =   1.99962642000173E-07  8.35515512675482E+00
 cg2d: Sum(rhs),rhsMax =   1.99992683747041E-07  8.35388976408931E+00
 cg2d: Sum(rhs),rhsMax =   2.00021098351044E-07  8.35269642172535E+00
 cg2d: Sum(rhs),rhsMax =   2.00047509224532E-07  8.35157910928809E+00
 cg2d: Sum(rhs),rhsMax =   2.00072307166010E-07  8.35054286708354E+00
 cg2d: Sum(rhs),rhsMax =   2.00094540048212E-07  8.34959373340554E+00
 cg2d: Sum(rhs),rhsMax =   2.00114726567335E-07  8.34873876151094E+00
 cg2d: Sum(rhs),rhsMax =  -1.06773258323756E-06  8.34798595609239E+00
 cg2d: Sum(rhs),rhsMax =  -4.41362311282001E-12  1.26993609975127E-02
 cg2d: Sum(rhs),rhsMax =   1.99897741026689E-07  8.35789137326595E+00
 cg2d: Sum(rhs),rhsMax =   1.99931214694971E-07  8.35648958946059E+00
 cg2d: Sum(rhs),rhsMax =   1.99962642000173E-07  8.35515512675482E+00
 cg2d: Sum(rhs),rhsMax =   1.99992683747041E-07  8.35388976408931E+00
 cg2d: Sum(rhs),rhsMax =   2.00021098351044E-07  8.35269642172535E+00
 cg2d: Sum(rhs),rhsMax =   2.00047509224532E-07  8.35157910928809E+00
 cg2d: Sum(rhs),rhsMax =   2.00072307166010E-07  8.35054286708354E+00
 cg2d: Sum(rhs),rhsMax =   2.00094540048212E-07  8.34959373340554E+00
 cg2d: Sum(rhs),rhsMax =  -1.32575343769759E-06  8.34873907343506E+00
 cg2d: Sum(rhs),rhsMax =  -4.37947247911019E-12  1.28351872950706E-02
 cg2d: Sum(rhs),rhsMax =   1.99897741026689E-07  8.35789137326595E+00
 cg2d: Sum(rhs),rhsMax =   1.99931214694971E-07  8.35648958946059E+00
 cg2d: Sum(rhs),rhsMax =   1.99962642000173E-07  8.35515512675482E+00
 cg2d: Sum(rhs),rhsMax =   1.99992683747041E-07  8.35388976408931E+00
 cg2d: Sum(rhs),rhsMax =   2.00021098351044E-07  8.35269642172535E+00
 cg2d: Sum(rhs),rhsMax =   2.00047509224532E-07  8.35157910928809E+00
 cg2d: Sum(rhs),rhsMax =   2.00072307166010E-07  8.35054286708354E+00
 cg2d: Sum(rhs),rhsMax =  -2.11283477824509E-07  8.34959390753388E+00
 cg2d: Sum(rhs),rhsMax =  -4.45129523518606E-12  1.27152845783237E-02
 cg2d: Sum(rhs),rhsMax =   1.99897741026689E-07  8.35789137326595E+00
 cg2d: Sum(rhs),rhsMax =   1.99931214694971E-07  8.35648958946059E+00
 cg2d: Sum(rhs),rhsMax =   1.99962642000173E-07  8.35515512675482E+00
 cg2d: Sum(rhs),rhsMax =   1.99992683747041E-07  8.35388976408931E+00
 cg2d: Sum(rhs),rhsMax =   2.00021098351044E-07  8.35269642172535E+00
 cg2d: Sum(rhs),rhsMax =   2.00047509224532E-07  8.35157910928809E+00
 cg2d: Sum(rhs),rhsMax =   6.61266895463086E-07  8.35054249916970E+00
 cg2d: Sum(rhs),rhsMax =  -4.48155922094795E-12  1.25212377640437E-02
 cg2d: Sum(rhs),rhsMax =   1.99897741026689E-07  8.35789137326595E+00
 cg2d: Sum(rhs),rhsMax =   1.99931214694971E-07  8.35648958946059E+00
 cg2d: Sum(rhs),rhsMax =   1.99962642000173E-07  8.35515512675482E+00
 cg2d: Sum(rhs),rhsMax =   1.99992683747041E-07  8.35388976408931E+00
 cg2d: Sum(rhs),rhsMax =   2.00021098351044E-07  8.35269642172535E+00
 cg2d: Sum(rhs),rhsMax =   4.29063078399849E-07  8.35157913157614E+00
 cg2d: Sum(rhs),rhsMax =  -4.42691369673121E-12  1.25569665549058E-02
 cg2d: Sum(rhs),rhsMax =   1.99897741026689E-07  8.35789137326595E+00
 cg2d: Sum(rhs),rhsMax =   1.99931214694971E-07  8.35648958946059E+00
 cg2d: Sum(rhs),rhsMax =   1.99962642000173E-07  8.35515512675482E+00
 cg2d: Sum(rhs),rhsMax =   1.99992683747041E-07  8.35388976408931E+00
 cg2d: Sum(rhs),rhsMax =  -4.84937146438824E-07  8.35269656127803E+00
 cg2d: Sum(rhs),rhsMax =  -4.38254640910962E-12  1.26693063843538E-02
 cg2d: Sum(rhs),rhsMax =   1.99897741026689E-07  8.35789137326595E+00
 cg2d: Sum(rhs),rhsMax =   1.99931214694971E-07  8.35648958946059E+00
 cg2d: Sum(rhs),rhsMax =   1.99962642000173E-07  8.35515512675482E+00
 cg2d: Sum(rhs),rhsMax =   4.26570018419170E-07  8.35388981894604E+00
 cg2d: Sum(rhs),rhsMax =  -4.31091447261611E-12  1.27826649879571E-02
 cg2d: Sum(rhs),rhsMax =   1.99897741026689E-07  8.35789137326595E+00
 cg2d: Sum(rhs),rhsMax =   1.99931214694971E-07  8.35648958946059E+00
 cg2d: Sum(rhs),rhsMax =  -6.55825708406610E-07  8.35515543567634E+00
(PID.TID 0000.0001) // =======================================================
(PID.TID 0000.0001) // Begin AD_MONITOR dynamic field statistics
(PID.TID 0000.0001) // =======================================================
(PID.TID 0000.0001) %MON ad_time_tsnumber             =               3600603
(PID.TID 0000.0001) %MON ad_time_secondsf             =   1.5554604960000E+11
(PID.TID 0000.0001) %MON ad_dynstat_adeta_max         =   3.4995594728690E+02
(PID.TID 0000.0001) %MON ad_dynstat_adeta_min         =  -1.6648006297406E+03
(PID.TID 0000.0001) %MON ad_dynstat_adeta_mean        =  -1.3001592599115E+01
(PID.TID 0000.0001) %MON ad_dynstat_adeta_sd          =   3.4705599770783E+02
(PID.TID 0000.0001) %MON ad_dynstat_adeta_del2        =   2.7768027928952E+00
(PID.TID 0000.0001) %MON ad_dynstat_aduvel_max        =   9.3868034646124E+03
(PID.TID 0000.0001) %MON ad_dynstat_aduvel_min        =  -5.5742216750954E+03
(PID.TID 0000.0001) %MON ad_dynstat_aduvel_mean       =   1.4488229354905E+01
(PID.TID 0000.0001) %MON ad_dynstat_aduvel_sd         =   3.1721560948204E+02
(PID.TID 0000.0001) %MON ad_dynstat_aduvel_del2       =   8.9027013608848E-01
(PID.TID 0000.0001) %MON ad_dynstat_advvel_max        =   3.2858567529160E+03
(PID.TID 0000.0001) %MON ad_dynstat_advvel_min        =  -3.1935675542271E+03
(PID.TID 0000.0001) %MON ad_dynstat_advvel_mean       =   1.5150901584724E+01
(PID.TID 0000.0001) %MON ad_dynstat_advvel_sd         =   2.2058311758135E+02
(PID.TID 0000.0001) %MON ad_dynstat_advvel_del2       =   9.4432285160578E-01
(PID.TID 0000.0001) %MON ad_dynstat_adwvel_max        =   1.1387709579153E+03
(PID.TID 0000.0001) %MON ad_dynstat_adwvel_min        =  -1.9548862003028E+04
(PID.TID 0000.0001) %MON ad_dynstat_adwvel_mean       =  -6.9348878835088E-02
(PID.TID 0000.0001) %MON ad_dynstat_adwvel_sd         =   4.2246268067934E+01
(PID.TID 0000.0001) %MON ad_dynstat_adwvel_del2       =   1.1963305317561E+00
(PID.TID 0000.0001) %MON ad_dynstat_adtheta_max       =   7.3249867611446E+02
(PID.TID 0000.0001) %MON ad_dynstat_adtheta_min       =  -6.1188757434560E+02
(PID.TID 0000.0001) %MON ad_dynstat_adtheta_mean      =   3.7673882656113E-01
(PID.TID 0000.0001) %MON ad_dynstat_adtheta_sd        =   4.8805562636911E+01
(PID.TID 0000.0001) %MON ad_dynstat_adtheta_del2      =   1.9608081618685E-01
(PID.TID 0000.0001) %MON ad_dynstat_adsalt_max        =   3.1319203449027E+03
(PID.TID 0000.0001) %MON ad_dynstat_adsalt_min        =  -3.8497761616451E+03
(PID.TID 0000.0001) %MON ad_dynstat_adsalt_mean       =  -1.9363509789645E+00
(PID.TID 0000.0001) %MON ad_dynstat_adsalt_sd         =   2.6173562942458E+02
(PID.TID 0000.0001) %MON ad_dynstat_adsalt_del2       =   1.0145629036773E+00
(PID.TID 0000.0001) %MON ad_dynstat_adsst_max         =   4.2292495873303E+00
(PID.TID 0000.0001) %MON ad_dynstat_adsst_min         =  -3.7094463937259E+00
(PID.TID 0000.0001) %MON ad_dynstat_adsst_mean        =   4.2318932305312E-02
(PID.TID 0000.0001) %MON ad_dynstat_adsst_sd          =   8.6186107204997E-01
(PID.TID 0000.0001) %MON ad_dynstat_adsst_del2        =   7.3264477664698E-03
(PID.TID 0000.0001) %MON ad_dynstat_adsss_max         =   1.3634643264285E+01
(PID.TID 0000.0001) %MON ad_dynstat_adsss_min         =  -1.1108065104681E+01
(PID.TID 0000.0001) %MON ad_dynstat_adsss_mean        =  -2.8627395898174E-02
(PID.TID 0000.0001) %MON ad_dynstat_adsss_sd          =   2.3166768522556E+00
(PID.TID 0000.0001) %MON ad_dynstat_adsss_del2        =   2.2213717100377E-02
(PID.TID 0000.0001) %MON ad_forcing_adqnet_max        =   0.0000000000000E+00
(PID.TID 0000.0001) %MON ad_forcing_adqnet_min        =   0.0000000000000E+00
(PID.TID 0000.0001) %MON ad_forcing_adqnet_mean       =   0.0000000000000E+00
(PID.TID 0000.0001) %MON ad_forcing_adqnet_sd         =   0.0000000000000E+00
(PID.TID 0000.0001) %MON ad_forcing_adqnet_del2       =   0.0000000000000E+00
(PID.TID 0000.0001) %MON ad_forcing_adqsw_max         =   1.6320140147411E-02
(PID.TID 0000.0001) %MON ad_forcing_adqsw_min         =  -3.1316340821072E-02
(PID.TID 0000.0001) %MON ad_forcing_adqsw_mean        =  -2.0828050802903E-05
(PID.TID 0000.0001) %MON ad_forcing_adqsw_sd          =   1.9461879479323E-03
(PID.TID 0000.0001) %MON ad_forcing_adqsw_del2        =   4.0742539543070E-05
(PID.TID 0000.0001) %MON ad_forcing_adempmr_max       =   0.0000000000000E+00
(PID.TID 0000.0001) %MON ad_forcing_adempmr_min       =   0.0000000000000E+00
(PID.TID 0000.0001) %MON ad_forcing_adempmr_mean      =   0.0000000000000E+00
(PID.TID 0000.0001) %MON ad_forcing_adempmr_sd        =   0.0000000000000E+00
(PID.TID 0000.0001) %MON ad_forcing_adempmr_del2      =   0.0000000000000E+00
(PID.TID 0000.0001) %MON ad_forcing_adfu_max          =   0.0000000000000E+00
(PID.TID 0000.0001) %MON ad_forcing_adfu_min          =   0.0000000000000E+00
(PID.TID 0000.0001) %MON ad_forcing_adfu_mean         =   0.0000000000000E+00
(PID.TID 0000.0001) %MON ad_forcing_adfu_sd           =   0.0000000000000E+00
(PID.TID 0000.0001) %MON ad_forcing_adfu_del2         =   0.0000000000000E+00
(PID.TID 0000.0001) %MON ad_forcing_adfv_max          =   0.0000000000000E+00
(PID.TID 0000.0001) %MON ad_forcing_adfv_min          =   0.0000000000000E+00
(PID.TID 0000.0001) %MON ad_forcing_adfv_mean         =   0.0000000000000E+00
(PID.TID 0000.0001) %MON ad_forcing_adfv_sd           =   0.0000000000000E+00
(PID.TID 0000.0001) %MON ad_forcing_adfv_del2         =   0.0000000000000E+00
(PID.TID 0000.0001) // =======================================================
(PID.TID 0000.0001) // End AD_MONITOR dynamic field statistics
(PID.TID 0000.0001) // =======================================================
(PID.TID 0000.0001) // =======================================================
(PID.TID 0000.0001) // Begin AD_MONITOR ptracer field statistics
(PID.TID 0000.0001) // =======================================================
(PID.TID 0000.0001) %MON ad_trcstat_adptracer01_max   =   0.0000000000000E+00
(PID.TID 0000.0001) %MON ad_trcstat_adptracer01_min   =   0.0000000000000E+00
(PID.TID 0000.0001) %MON ad_trcstat_adptracer01_mean  =   0.0000000000000E+00
(PID.TID 0000.0001) %MON ad_trcstat_adptracer01_sd    =   0.0000000000000E+00
(PID.TID 0000.0001) %MON ad_trcstat_adptracer01_del2  =   0.0000000000000E+00
(PID.TID 0000.0001) %MON ad_trcstat_adptracer02_max   =   0.0000000000000E+00
(PID.TID 0000.0001) %MON ad_trcstat_adptracer02_min   =   0.0000000000000E+00
(PID.TID 0000.0001) %MON ad_trcstat_adptracer02_mean  =   0.0000000000000E+00
(PID.TID 0000.0001) %MON ad_trcstat_adptracer02_sd    =   0.0000000000000E+00
(PID.TID 0000.0001) %MON ad_trcstat_adptracer02_del2  =   0.0000000000000E+00
(PID.TID 0000.0001) %MON ad_trcstat_adptracer03_max   =   8.5684457234819E-28
(PID.TID 0000.0001) %MON ad_trcstat_adptracer03_min   =  -1.4495877809543E-24
(PID.TID 0000.0001) %MON ad_trcstat_adptracer03_mean  =  -2.4109548368956E-29
(PID.TID 0000.0001) %MON ad_trcstat_adptracer03_sd    =   4.6661783041600E-27
(PID.TID 0000.0001) %MON ad_trcstat_adptracer03_del2  =   2.4233679952597E-29
(PID.TID 0000.0001) %MON ad_trcstat_adptracer04_max   =   7.0250903312766E+04
(PID.TID 0000.0001) %MON ad_trcstat_adptracer04_min   =  -2.0562686697070E+06
(PID.TID 0000.0001) %MON ad_trcstat_adptracer04_mean  =  -1.9590386990817E+04
(PID.TID 0000.0001) %MON ad_trcstat_adptracer04_sd    =   1.7456234623064E+05
(PID.TID 0000.0001) %MON ad_trcstat_adptracer04_del2  =   3.8272739838302E+02
(PID.TID 0000.0001) %MON ad_trcstat_adptracer05_max   =   2.7931530351277E+05
(PID.TID 0000.0001) %MON ad_trcstat_adptracer05_min   =  -1.0695384849919E+04
(PID.TID 0000.0001) %MON ad_trcstat_adptracer05_mean  =   2.6226239421632E+03
(PID.TID 0000.0001) %MON ad_trcstat_adptracer05_sd    =   2.3362929295305E+04
(PID.TID 0000.0001) %MON ad_trcstat_adptracer05_del2  =   5.1394611308170E+01
(PID.TID 0000.0001) %MON ad_trcstat_adptracer06_max   =   1.1692623142508E+09
(PID.TID 0000.0001) %MON ad_trcstat_adptracer06_min   =  -1.1269344402159E+09
(PID.TID 0000.0001) %MON ad_trcstat_adptracer06_mean  =   2.6421032400629E+05
(PID.TID 0000.0001) %MON ad_trcstat_adptracer06_sd    =   4.6080675662692E+07
(PID.TID 0000.0001) %MON ad_trcstat_adptracer06_del2  =   2.0620969388127E+05
(PID.TID 0000.0001) %MON ad_trcstat_adptracer07_max   =   0.0000000000000E+00
(PID.TID 0000.0001) %MON ad_trcstat_adptracer07_min   =   0.0000000000000E+00
(PID.TID 0000.0001) %MON ad_trcstat_adptracer07_mean  =   0.0000000000000E+00
(PID.TID 0000.0001) %MON ad_trcstat_adptracer07_sd    =   0.0000000000000E+00
(PID.TID 0000.0001) %MON ad_trcstat_adptracer07_del2  =   0.0000000000000E+00
(PID.TID 0000.0001) %MON ad_trcstat_adptracer08_max   =   0.0000000000000E+00
(PID.TID 0000.0001) %MON ad_trcstat_adptracer08_min   =   0.0000000000000E+00
(PID.TID 0000.0001) %MON ad_trcstat_adptracer08_mean  =   0.0000000000000E+00
(PID.TID 0000.0001) %MON ad_trcstat_adptracer08_sd    =   0.0000000000000E+00
(PID.TID 0000.0001) %MON ad_trcstat_adptracer08_del2  =   0.0000000000000E+00
(PID.TID 0000.0001) %MON ad_trcstat_adptracer09_max   =   0.0000000000000E+00
(PID.TID 0000.0001) %MON ad_trcstat_adptracer09_min   =   0.0000000000000E+00
(PID.TID 0000.0001) %MON ad_trcstat_adptracer09_mean  =   0.0000000000000E+00
(PID.TID 0000.0001) %MON ad_trcstat_adptracer09_sd    =   0.0000000000000E+00
(PID.TID 0000.0001) %MON ad_trcstat_adptracer09_del2  =   0.0000000000000E+00
(PID.TID 0000.0001) // =======================================================
(PID.TID 0000.0001) // End AD_MONITOR ptracer field statistics
(PID.TID 0000.0001) // =======================================================
 cg2d: Sum(rhs),rhsMax =  -4.21748400092348E-12  1.31140483043210E-02
 cg2d: Sum(rhs),rhsMax =   1.99897741026689E-07  8.35789137326595E+00
 cg2d: Sum(rhs),rhsMax =   1.13308699667414E-06  8.35648992063761E+00
 cg2d: Sum(rhs),rhsMax =  -3.93520979691253E-12  1.38158375447583E-02
 cg2d: Sum(rhs),rhsMax =   1.99898131825194E-07  8.35789137344220E+00
 cg2d: Sum(rhs),rhsMax =  -3.86438277211187E-12  1.42284245555660E-02
 cg2d: Sum(rhs),rhsMax =  -2.44783471714527E-07  8.51897418323859E+00
 cg2d: Sum(rhs),rhsMax =  -2.44957739425899E-07  8.51294224856493E+00
 cg2d: Sum(rhs),rhsMax =  -2.45131850817870E-07  8.50690564885983E+00
 cg2d: Sum(rhs),rhsMax =  -2.45306104318388E-07  8.50087010325378E+00
 cg2d: Sum(rhs),rhsMax =  -2.45480840987966E-07  8.49484030788981E+00
 cg2d: Sum(rhs),rhsMax =  -2.45655421338142E-07  8.48882091652209E+00
 cg2d: Sum(rhs),rhsMax =  -2.45829966161182E-07  8.48281648598470E+00
 cg2d: Sum(rhs),rhsMax =  -2.46003693860075E-07  8.47683141604414E+00
 cg2d: Sum(rhs),rhsMax =  -2.46177087603883E-07  8.47086986481543E+00
 cg2d: Sum(rhs),rhsMax =  -2.46350516874827E-07  8.46493565647207E+00
 EXTERNAL_FIELDS_LOAD, it=   3600570 : Reading new data, i0,i1=   10   11 (prev=    9   11 )
 DIC_FIELDS_LOAD, it=   3600570 : Reading new data, i0,i1=   10   11 (prev=    9   10 )
 cg2d: Sum(rhs),rhsMax =  -2.46522958491369E-07  8.45903217397129E+00
 cg2d: Sum(rhs),rhsMax =  -2.46693353744831E-07  8.45319776100662E+00
 cg2d: Sum(rhs),rhsMax =  -2.46861752373206E-07  8.44745780781015E+00
 cg2d: Sum(rhs),rhsMax =  -2.47026463284783E-07  8.44183689308228E+00
 cg2d: Sum(rhs),rhsMax =  -2.47187230684176E-07  8.43635808123200E+00
 cg2d: Sum(rhs),rhsMax =  -2.47343706405445E-07  8.43104233122613E+00
 cg2d: Sum(rhs),rhsMax =  -2.47495002270171E-07  8.42590806033104E+00
 cg2d: Sum(rhs),rhsMax =  -2.47640862482967E-07  8.42097079337588E+00
 cg2d: Sum(rhs),rhsMax =  -2.47780199913450E-07  8.41624287670950E+00
 cg2d: Sum(rhs),rhsMax =  -2.47913433781832E-07  8.41173327531019E+00
 cg2d: Sum(rhs),rhsMax =  -2.48040628036961E-07  8.40744751803125E+00
 cg2d: Sum(rhs),rhsMax =  -2.48160993976398E-07  8.40338776690083E+00
 cg2d: Sum(rhs),rhsMax =  -2.48274659497838E-07  8.39955295260282E+00
 cg2d: Sum(rhs),rhsMax =  -2.48382001188929E-07  8.39593904397255E+00
 cg2d: Sum(rhs),rhsMax =  -2.48483310372194E-07  8.39253935780259E+00
 cg2d: Sum(rhs),rhsMax =  -2.48578452044512E-07  8.38934486115791E+00
 cg2d: Sum(rhs),rhsMax =  -2.48667660684987E-07  8.38634455564178E+00
 cg2d: Sum(rhs),rhsMax =  -2.48751881315457E-07  8.38352593271183E+00
 cg2d: Sum(rhs),rhsMax =  -2.48830964721947E-07  8.38087545512510E+00
 cg2d: Sum(rhs),rhsMax =  -2.48905820399159E-07  8.37837910210342E+00
 cg2d: Sum(rhs),rhsMax =   9.97540134051178E-07  8.37602289804333E+00
 cg2d: Sum(rhs),rhsMax =   9.97804868063668E-07  8.37379378147107E+00
 cg2d: Sum(rhs),rhsMax =   9.98056513878964E-07  8.37167964918601E+00
 cg2d: Sum(rhs),rhsMax =   9.98296059151471E-07  8.36966946404782E+00
 cg2d: Sum(rhs),rhsMax =   9.98523880468838E-07  8.36775372377293E+00
 cg2d: Sum(rhs),rhsMax =   9.98742017088716E-07  8.36592442964533E+00
 cg2d: Sum(rhs),rhsMax =   9.98950682173927E-07  8.36417505393672E+00
 cg2d: Sum(rhs),rhsMax =   9.99149953884171E-07  8.36250046426439E+00
 cg2d: Sum(rhs),rhsMax =   9.99341303042911E-07  8.36089685230881E+00
 cg2d: Sum(rhs),rhsMax =   9.99524651490447E-07  8.35936166820080E+00
 cg2d: Sum(rhs),rhsMax =   9.97540134051178E-07  8.37602289804333E+00
 cg2d: Sum(rhs),rhsMax =   9.97804868063668E-07  8.37379378147107E+00
 cg2d: Sum(rhs),rhsMax =   9.98056513878964E-07  8.37167964918601E+00
 cg2d: Sum(rhs),rhsMax =   9.98296059151471E-07  8.36966946404782E+00
 cg2d: Sum(rhs),rhsMax =   9.98523880468838E-07  8.36775372377293E+00
 cg2d: Sum(rhs),rhsMax =   9.98742017088716E-07  8.36592442964533E+00
 cg2d: Sum(rhs),rhsMax =   9.98950682173927E-07  8.36417505393672E+00
 cg2d: Sum(rhs),rhsMax =   9.99149953884171E-07  8.36250046426439E+00
 cg2d: Sum(rhs),rhsMax =   9.99341303042911E-07  8.36089685230881E+00
 cg2d: Sum(rhs),rhsMax =   1.36309026288473E-06  8.35936132268928E+00
 cg2d: Sum(rhs),rhsMax =  -3.85760347276776E-12  1.43368633794691E-02
 cg2d: Sum(rhs),rhsMax =   9.97540134051178E-07  8.37602289804333E+00
 cg2d: Sum(rhs),rhsMax =   9.97804868063668E-07  8.37379378147107E+00
 cg2d: Sum(rhs),rhsMax =   9.98056513878964E-07  8.37167964918601E+00
 cg2d: Sum(rhs),rhsMax =   9.98296059151471E-07  8.36966946404782E+00
 cg2d: Sum(rhs),rhsMax =   9.98523880468838E-07  8.36775372377293E+00
 cg2d: Sum(rhs),rhsMax =   9.98742017088716E-07  8.36592442964533E+00
 cg2d: Sum(rhs),rhsMax =   9.98950682173927E-07  8.36417505393672E+00
 cg2d: Sum(rhs),rhsMax =   9.99149953884171E-07  8.36250046426439E+00
 cg2d: Sum(rhs),rhsMax =   1.29907552093300E-06  8.36089662974392E+00
 cg2d: Sum(rhs),rhsMax =  -3.79046967424745E-12  1.43259606727900E-02
 cg2d: Sum(rhs),rhsMax =   9.97540134051178E-07  8.37602289804333E+00
 cg2d: Sum(rhs),rhsMax =   9.97804868063668E-07  8.37379378147107E+00
 cg2d: Sum(rhs),rhsMax =   9.98056513878964E-07  8.37167964918601E+00
 cg2d: Sum(rhs),rhsMax =   9.98296059151471E-07  8.36966946404782E+00
 cg2d: Sum(rhs),rhsMax =   9.98523880468838E-07  8.36775372377293E+00
 cg2d: Sum(rhs),rhsMax =   9.98742017088716E-07  8.36592442964533E+00
 cg2d: Sum(rhs),rhsMax =   9.98950682173927E-07  8.36417505393672E+00
 cg2d: Sum(rhs),rhsMax =   7.69022463487090E-08  8.36250026607104E+00
 cg2d: Sum(rhs),rhsMax =  -3.81948812855359E-12  1.43089402106814E-02
 cg2d: Sum(rhs),rhsMax =   9.97540134051178E-07  8.37602289804333E+00
 cg2d: Sum(rhs),rhsMax =   9.97804868063668E-07  8.37379378147107E+00
 cg2d: Sum(rhs),rhsMax =   9.98056513878964E-07  8.37167964918601E+00
 cg2d: Sum(rhs),rhsMax =   9.98296059151471E-07  8.36966946404782E+00
 cg2d: Sum(rhs),rhsMax =   9.98523880468838E-07  8.36775372377293E+00
 cg2d: Sum(rhs),rhsMax =   9.98742017088716E-07  8.36592442964533E+00
 cg2d: Sum(rhs),rhsMax =   1.54509056926599E-06  8.36417483382307E+00
 cg2d: Sum(rhs),rhsMax =  -3.78760564578862E-12  1.42941896310915E-02
 cg2d: Sum(rhs),rhsMax =   9.97540134051178E-07  8.37602289804333E+00
 cg2d: Sum(rhs),rhsMax =   9.97804868063668E-07  8.37379378147107E+00
 cg2d: Sum(rhs),rhsMax =   9.98056513878964E-07  8.37167964918601E+00
 cg2d: Sum(rhs),rhsMax =   9.98296059151471E-07  8.36966946404782E+00
 cg2d: Sum(rhs),rhsMax =   9.98523880468838E-07  8.36775372377293E+00
 cg2d: Sum(rhs),rhsMax =   2.86452042530527E-07  8.36592441585501E+00
 cg2d: Sum(rhs),rhsMax =  -3.77397592343787E-12  1.42460194615491E-02
 cg2d: Sum(rhs),rhsMax =   9.97540134051178E-07  8.37602289804333E+00
 cg2d: Sum(rhs),rhsMax =   9.97804868063668E-07  8.37379378147107E+00
 cg2d: Sum(rhs),rhsMax =   9.98056513878964E-07  8.37167964918601E+00
 cg2d: Sum(rhs),rhsMax =   9.98296059151471E-07  8.36966946404782E+00
 cg2d: Sum(rhs),rhsMax =   1.51874211695713E-06  8.36775382530465E+00
 cg2d: Sum(rhs),rhsMax =  -3.75536407526411E-12  1.41467304379672E-02
 cg2d: Sum(rhs),rhsMax =   9.97540134051178E-07  8.37602289804333E+00
 cg2d: Sum(rhs),rhsMax =   9.97804868063668E-07  8.37379378147107E+00
 cg2d: Sum(rhs),rhsMax =   9.98056513878964E-07  8.37167964918601E+00
 cg2d: Sum(rhs),rhsMax =   1.99214800034042E-06  8.36966939143894E+00
 cg2d: Sum(rhs),rhsMax =  -3.76430484005930E-12  1.40081104367070E-02
 cg2d: Sum(rhs),rhsMax =   9.97540134051178E-07  8.37602289804333E+00
 cg2d: Sum(rhs),rhsMax =   9.97804868063668E-07  8.37379378147107E+00
 cg2d: Sum(rhs),rhsMax =   2.12658252252140E-06  8.37167973689963E+00
 cg2d: Sum(rhs),rhsMax =  -3.73214827098511E-12  1.40557613194714E-02
 cg2d: Sum(rhs),rhsMax =   9.97540134051178E-07  8.37602289804333E+00
 cg2d: Sum(rhs),rhsMax =   1.27795050275381E-06  8.37379348546987E+00
 cg2d: Sum(rhs),rhsMax =  -3.71758353268081E-12  1.40716727253958E-02
 cg2d: Sum(rhs),rhsMax =   9.97539871150366E-07  8.37602289690334E+00
 cg2d: Sum(rhs),rhsMax =  -3.69966557389745E-12  1.38965849999129E-02
 cg2d: Sum(rhs),rhsMax =  -2.44783471714527E-07  8.51897418323859E+00
 cg2d: Sum(rhs),rhsMax =  -2.44957739425899E-07  8.51294224856493E+00
 cg2d: Sum(rhs),rhsMax =  -2.45131850817870E-07  8.50690564885983E+00
 cg2d: Sum(rhs),rhsMax =  -2.45306104318388E-07  8.50087010325378E+00
 cg2d: Sum(rhs),rhsMax =  -2.45480840987966E-07  8.49484030788981E+00
 cg2d: Sum(rhs),rhsMax =  -2.45655421338142E-07  8.48882091652209E+00
 cg2d: Sum(rhs),rhsMax =  -2.45829966161182E-07  8.48281648598470E+00
 cg2d: Sum(rhs),rhsMax =  -2.46003693860075E-07  8.47683141604414E+00
 cg2d: Sum(rhs),rhsMax =  -2.46177087603883E-07  8.47086986481543E+00
 cg2d: Sum(rhs),rhsMax =  -2.46350516874827E-07  8.46493565647207E+00
 EXTERNAL_FIELDS_LOAD, it=   3600570 : Reading new data, i0,i1=   10   11 (prev=    9   11 )
 DIC_FIELDS_LOAD, it=   3600570 : Reading new data, i0,i1=   10   11 (prev=    9   10 )
 cg2d: Sum(rhs),rhsMax =  -2.46522958491369E-07  8.45903217397129E+00
 cg2d: Sum(rhs),rhsMax =  -2.46693353744831E-07  8.45319776100662E+00
 cg2d: Sum(rhs),rhsMax =  -2.46861752373206E-07  8.44745780781015E+00
 cg2d: Sum(rhs),rhsMax =  -2.47026463284783E-07  8.44183689308228E+00
 cg2d: Sum(rhs),rhsMax =  -2.47187230684176E-07  8.43635808123200E+00
 cg2d: Sum(rhs),rhsMax =  -2.47343706405445E-07  8.43104233122613E+00
 cg2d: Sum(rhs),rhsMax =  -2.47495002270171E-07  8.42590806033104E+00
 cg2d: Sum(rhs),rhsMax =  -2.47640862482967E-07  8.42097079337588E+00
 cg2d: Sum(rhs),rhsMax =  -2.47780199913450E-07  8.41624287670950E+00
 cg2d: Sum(rhs),rhsMax =  -2.47913433781832E-07  8.41173327531019E+00
 cg2d: Sum(rhs),rhsMax =   1.63711634826313E-06  8.40744747383192E+00
 cg2d: Sum(rhs),rhsMax =   1.63790701890321E-06  8.40338770372909E+00
 cg2d: Sum(rhs),rhsMax =   1.63865401248131E-06  8.39955282190328E+00
 cg2d: Sum(rhs),rhsMax =   1.63935889929689E-06  8.39593877867336E+00
 cg2d: Sum(rhs),rhsMax =   1.64002276648034E-06  8.39253888885099E+00
 cg2d: Sum(rhs),rhsMax =   1.64064688590315E-06  8.38934412848357E+00
 cg2d: Sum(rhs),rhsMax =   1.64123331103383E-06  8.38634351253206E+00
 cg2d: Sum(rhs),rhsMax =   1.64178445771768E-06  8.38352454654880E+00
 cg2d: Sum(rhs),rhsMax =   1.64230346655359E-06  8.38087370689068E+00
 cg2d: Sum(rhs),rhsMax =   1.64279239811549E-06  8.37837698551558E+00
 cg2d: Sum(rhs),rhsMax =   1.63711634826313E-06  8.40744747383192E+00
 cg2d: Sum(rhs),rhsMax =   1.63790701890321E-06  8.40338770372909E+00
 cg2d: Sum(rhs),rhsMax =   1.63865401248131E-06  8.39955282190328E+00
 cg2d: Sum(rhs),rhsMax =   1.63935889929689E-06  8.39593877867336E+00
 cg2d: Sum(rhs),rhsMax =   1.64002276648034E-06  8.39253888885099E+00
 cg2d: Sum(rhs),rhsMax =   1.64064688590315E-06  8.38934412848357E+00
 cg2d: Sum(rhs),rhsMax =   1.64123331103383E-06  8.38634351253206E+00
 cg2d: Sum(rhs),rhsMax =   1.64178445771768E-06  8.38352454654880E+00
 cg2d: Sum(rhs),rhsMax =   1.64230346655359E-06  8.38087370689068E+00
 cg2d: Sum(rhs),rhsMax =   7.92222749623761E-08  8.37837671695110E+00
 cg2d: Sum(rhs),rhsMax =  -3.75260586493731E-12  1.37341287951090E-02
 cg2d: Sum(rhs),rhsMax =   1.63711634826313E-06  8.40744747383192E+00
 cg2d: Sum(rhs),rhsMax =   1.63790701890321E-06  8.40338770372909E+00
 cg2d: Sum(rhs),rhsMax =   1.63865401248131E-06  8.39955282190328E+00
 cg2d: Sum(rhs),rhsMax =   1.63935889929689E-06  8.39593877867336E+00
 cg2d: Sum(rhs),rhsMax =   1.64002276648034E-06  8.39253888885099E+00
 cg2d: Sum(rhs),rhsMax =   1.64064688590315E-06  8.38934412848357E+00
 cg2d: Sum(rhs),rhsMax =   1.64123331103383E-06  8.38634351253206E+00
 cg2d: Sum(rhs),rhsMax =   1.64178445771768E-06  8.38352454654880E+00
 cg2d: Sum(rhs),rhsMax =   1.62758480826142E-06  8.38087364070262E+00
 cg2d: Sum(rhs),rhsMax =  -3.63996680019518E-12  1.40798651714431E-02
 cg2d: Sum(rhs),rhsMax =   1.63711634826313E-06  8.40744747383192E+00
 cg2d: Sum(rhs),rhsMax =   1.63790701890321E-06  8.40338770372909E+00
 cg2d: Sum(rhs),rhsMax =   1.63865401248131E-06  8.39955282190328E+00
 cg2d: Sum(rhs),rhsMax =   1.63935889929689E-06  8.39593877867336E+00
 cg2d: Sum(rhs),rhsMax =   1.64002276648034E-06  8.39253888885099E+00
 cg2d: Sum(rhs),rhsMax =   1.64064688590315E-06  8.38934412848357E+00
 cg2d: Sum(rhs),rhsMax =   1.64123331103383E-06  8.38634351253206E+00
 cg2d: Sum(rhs),rhsMax =   1.01684831577131E-06  8.38352428165440E+00
 cg2d: Sum(rhs),rhsMax =  -3.54259677148860E-12  1.45476466405354E-02
 cg2d: Sum(rhs),rhsMax =   1.63711634826313E-06  8.40744747383192E+00
 cg2d: Sum(rhs),rhsMax =   1.63790701890321E-06  8.40338770372909E+00
 cg2d: Sum(rhs),rhsMax =   1.63865401248131E-06  8.39955282190328E+00
 cg2d: Sum(rhs),rhsMax =   1.63935889929689E-06  8.39593877867336E+00
 cg2d: Sum(rhs),rhsMax =   1.64002276648034E-06  8.39253888885099E+00
 cg2d: Sum(rhs),rhsMax =   1.64064688590315E-06  8.38934412848357E+00
 cg2d: Sum(rhs),rhsMax =   1.41765938366234E-06  8.38634320917897E+00
 cg2d: Sum(rhs),rhsMax =  -3.37993175114626E-12  1.49479016467213E-02
 cg2d: Sum(rhs),rhsMax =   1.63711634826313E-06  8.40744747383192E+00
 cg2d: Sum(rhs),rhsMax =   1.63790701890321E-06  8.40338770372909E+00
 cg2d: Sum(rhs),rhsMax =   1.63865401248131E-06  8.39955282190328E+00
 cg2d: Sum(rhs),rhsMax =   1.63935889929689E-06  8.39593877867336E+00
 cg2d: Sum(rhs),rhsMax =   1.64002276648034E-06  8.39253888885099E+00
 cg2d: Sum(rhs),rhsMax =   1.01759128767753E-06  8.38934401443276E+00
 cg2d: Sum(rhs),rhsMax =  -3.25504206921678E-12  1.52658439470902E-02
 cg2d: Sum(rhs),rhsMax =   1.63711634826313E-06  8.40744747383192E+00
 cg2d: Sum(rhs),rhsMax =   1.63790701890321E-06  8.40338770372909E+00
 cg2d: Sum(rhs),rhsMax =   1.63865401248131E-06  8.39955282190328E+00
 cg2d: Sum(rhs),rhsMax =   1.63935889929689E-06  8.39593877867336E+00
 cg2d: Sum(rhs),rhsMax =   2.00696710805914E-06  8.39253917107387E+00
 cg2d: Sum(rhs),rhsMax =  -3.16899284591443E-12  1.55083070655364E-02
 cg2d: Sum(rhs),rhsMax =   1.63711634826313E-06  8.40744747383192E+00
 cg2d: Sum(rhs),rhsMax =   1.63790701890321E-06  8.40338770372909E+00
 cg2d: Sum(rhs),rhsMax =   1.63865401248131E-06  8.39955282190328E+00
 cg2d: Sum(rhs),rhsMax =   2.59205863528678E-06  8.39593853398969E+00
 cg2d: Sum(rhs),rhsMax =  -3.06655395521105E-12  1.56749191733938E-02
 cg2d: Sum(rhs),rhsMax =   1.63711634826313E-06  8.40744747383192E+00
 cg2d: Sum(rhs),rhsMax =   1.63790701890321E-06  8.40338770372909E+00
 cg2d: Sum(rhs),rhsMax =   1.00562347427058E-06  8.39955305796986E+00
 cg2d: Sum(rhs),rhsMax =  -3.06752886980455E-12  1.58190743444087E-02
 cg2d: Sum(rhs),rhsMax =   1.63711634826313E-06  8.40744747383192E+00
 cg2d: Sum(rhs),rhsMax =   2.08105578280993E-06  8.40338784574658E+00
 cg2d: Sum(rhs),rhsMax =  -2.93699439768424E-12  1.63036231783313E-02
 cg2d: Sum(rhs),rhsMax =   1.63711629852514E-06  8.40744747409096E+00
 cg2d: Sum(rhs),rhsMax =  -2.94233387654330E-12  1.62942389372418E-02
 cg2d: Sum(rhs),rhsMax =  -2.44783471714527E-07  8.51897418323859E+00
 cg2d: Sum(rhs),rhsMax =  -2.44957739425899E-07  8.51294224856493E+00
 cg2d: Sum(rhs),rhsMax =  -2.45131850817870E-07  8.50690564885983E+00
 cg2d: Sum(rhs),rhsMax =  -2.45306104318388E-07  8.50087010325378E+00
 cg2d: Sum(rhs),rhsMax =  -2.45480840987966E-07  8.49484030788981E+00
 cg2d: Sum(rhs),rhsMax =  -2.45655421338142E-07  8.48882091652209E+00
 cg2d: Sum(rhs),rhsMax =  -2.45829966161182E-07  8.48281648598470E+00
 cg2d: Sum(rhs),rhsMax =  -2.46003693860075E-07  8.47683141604414E+00
 cg2d: Sum(rhs),rhsMax =  -2.46177087603883E-07  8.47086986481543E+00
 cg2d: Sum(rhs),rhsMax =  -2.46350516874827E-07  8.46493565647207E+00
 EXTERNAL_FIELDS_LOAD, it=   3600570 : Reading new data, i0,i1=   10   11 (prev=    9   11 )
 DIC_FIELDS_LOAD, it=   3600570 : Reading new data, i0,i1=   10   11 (prev=    9   10 )
 cg2d: Sum(rhs),rhsMax =  -1.93892063293788E-06  8.45903199959563E+00
 cg2d: Sum(rhs),rhsMax =  -1.94025963651256E-06  8.45319758754606E+00
 cg2d: Sum(rhs),rhsMax =  -1.94157829724872E-06  8.44745760773264E+00
 cg2d: Sum(rhs),rhsMax =  -1.94287159160922E-06  8.44183662880863E+00
 cg2d: Sum(rhs),rhsMax =  -1.94413400578242E-06  8.43635771146107E+00
 cg2d: Sum(rhs),rhsMax =  -1.94536028885750E-06  8.43104181422928E+00
 cg2d: Sum(rhs),rhsMax =  -1.94654641916259E-06  8.42590735597537E+00
 cg2d: Sum(rhs),rhsMax =  -1.94768816896840E-06  8.42096986582309E+00
 cg2d: Sum(rhs),rhsMax =  -1.94878291637224E-06  8.41624169801887E+00
 cg2d: Sum(rhs),rhsMax =  -1.94982809631483E-06  8.41173182886394E+00
 EXTERNAL_FIELDS_LOAD, it=   3600570 : Reading new data, i0,i1=   10   11 (prev=    9   11 )
 DIC_FIELDS_LOAD, it=   3600570 : Reading new data, i0,i1=   10   11 (prev=    9   10 )
 cg2d: Sum(rhs),rhsMax =  -1.93892063293788E-06  8.45903199959563E+00
 cg2d: Sum(rhs),rhsMax =  -1.94025963651256E-06  8.45319758754606E+00
 cg2d: Sum(rhs),rhsMax =  -1.94157829724872E-06  8.44745760773264E+00
 cg2d: Sum(rhs),rhsMax =  -1.94287159160922E-06  8.44183662880863E+00
 cg2d: Sum(rhs),rhsMax =  -1.94413400578242E-06  8.43635771146107E+00
 cg2d: Sum(rhs),rhsMax =  -1.94536028885750E-06  8.43104181422928E+00
 cg2d: Sum(rhs),rhsMax =  -1.94654641916259E-06  8.42590735597537E+00
 cg2d: Sum(rhs),rhsMax =  -1.94768816896840E-06  8.42096986582309E+00
 cg2d: Sum(rhs),rhsMax =  -1.94878291637224E-06  8.41624169801887E+00
 cg2d: Sum(rhs),rhsMax =  -1.93718607022220E-06  8.41173189483550E+00
 cg2d: Sum(rhs),rhsMax =  -2.92570134785564E-12  1.59019199529095E-02
 EXTERNAL_FIELDS_LOAD, it=   3600570 : Reading new data, i0,i1=   10   11 (prev=    9   11 )
 DIC_FIELDS_LOAD, it=   3600570 : Reading new data, i0,i1=   10   11 (prev=    9   10 )
 cg2d: Sum(rhs),rhsMax =  -1.93892063293788E-06  8.45903199959563E+00
 cg2d: Sum(rhs),rhsMax =  -1.94025963651256E-06  8.45319758754606E+00
 cg2d: Sum(rhs),rhsMax =  -1.94157829724872E-06  8.44745760773264E+00
 cg2d: Sum(rhs),rhsMax =  -1.94287159160922E-06  8.44183662880863E+00
 cg2d: Sum(rhs),rhsMax =  -1.94413400578242E-06  8.43635771146107E+00
 cg2d: Sum(rhs),rhsMax =  -1.94536028885750E-06  8.43104181422928E+00
 cg2d: Sum(rhs),rhsMax =  -1.94654641916259E-06  8.42590735597537E+00
 cg2d: Sum(rhs),rhsMax =  -1.94768816896840E-06  8.42096986582309E+00
 cg2d: Sum(rhs),rhsMax =  -9.88912525201613E-07  8.41624182200582E+00
 cg2d: Sum(rhs),rhsMax =  -2.85802284616388E-12  1.59062637993889E-02
 EXTERNAL_FIELDS_LOAD, it=   3600570 : Reading new data, i0,i1=   10   11 (prev=    9   11 )
 DIC_FIELDS_LOAD, it=   3600570 : Reading new data, i0,i1=   10   11 (prev=    9   10 )
 cg2d: Sum(rhs),rhsMax =  -1.93892063293788E-06  8.45903199959563E+00
 cg2d: Sum(rhs),rhsMax =  -1.94025963651256E-06  8.45319758754606E+00
 cg2d: Sum(rhs),rhsMax =  -1.94157829724872E-06  8.44745760773264E+00
 cg2d: Sum(rhs),rhsMax =  -1.94287159160922E-06  8.44183662880863E+00
 cg2d: Sum(rhs),rhsMax =  -1.94413400578242E-06  8.43635771146107E+00
 cg2d: Sum(rhs),rhsMax =  -1.94536028885750E-06  8.43104181422928E+00
 cg2d: Sum(rhs),rhsMax =  -1.94654641916259E-06  8.42590735597537E+00
 cg2d: Sum(rhs),rhsMax =  -1.60111777347538E-06  8.42096955377950E+00
 cg2d: Sum(rhs),rhsMax =  -2.81076897867827E-12  1.57023045677941E-02
 EXTERNAL_FIELDS_LOAD, it=   3600570 : Reading new data, i0,i1=   10   11 (prev=    9   11 )
 DIC_FIELDS_LOAD, it=   3600570 : Reading new data, i0,i1=   10   11 (prev=    9   10 )
 cg2d: Sum(rhs),rhsMax =  -1.93892063293788E-06  8.45903199959563E+00
 cg2d: Sum(rhs),rhsMax =  -1.94025963651256E-06  8.45319758754606E+00
 cg2d: Sum(rhs),rhsMax =  -1.94157829724872E-06  8.44745760773264E+00
 cg2d: Sum(rhs),rhsMax =  -1.94287159160922E-06  8.44183662880863E+00
 cg2d: Sum(rhs),rhsMax =  -1.94413400578242E-06  8.43635771146107E+00
 cg2d: Sum(rhs),rhsMax =  -1.94536028885750E-06  8.43104181422928E+00
 cg2d: Sum(rhs),rhsMax =  -2.41171900228210E-06  8.42590749911544E+00
 cg2d: Sum(rhs),rhsMax =  -2.82926806982609E-12  1.52497583415585E-02
 EXTERNAL_FIELDS_LOAD, it=   3600570 : Reading new data, i0,i1=   10   11 (prev=    9   11 )
 DIC_FIELDS_LOAD, it=   3600570 : Reading new data, i0,i1=   10   11 (prev=    9   10 )
 cg2d: Sum(rhs),rhsMax =  -1.93892063293788E-06  8.45903199959563E+00
 cg2d: Sum(rhs),rhsMax =  -1.94025963651256E-06  8.45319758754606E+00
 cg2d: Sum(rhs),rhsMax =  -1.94157829724872E-06  8.44745760773264E+00
 cg2d: Sum(rhs),rhsMax =  -1.94287159160922E-06  8.44183662880863E+00
 cg2d: Sum(rhs),rhsMax =  -1.94413400578242E-06  8.43635771146107E+00
 cg2d: Sum(rhs),rhsMax =  -2.64069331734618E-06  8.43104167311316E+00
 cg2d: Sum(rhs),rhsMax =  -2.82914316973581E-12  1.51265734196294E-02
 EXTERNAL_FIELDS_LOAD, it=   3600570 : Reading new data, i0,i1=   10   11 (prev=    9   11 )
 DIC_FIELDS_LOAD, it=   3600570 : Reading new data, i0,i1=   10   11 (prev=    9   10 )
 cg2d: Sum(rhs),rhsMax =  -1.93892063293788E-06  8.45903199959563E+00
 cg2d: Sum(rhs),rhsMax =  -1.94025963651256E-06  8.45319758754606E+00
 cg2d: Sum(rhs),rhsMax =  -1.94157829724872E-06  8.44745760773264E+00
 cg2d: Sum(rhs),rhsMax =  -1.94287159160922E-06  8.44183662880863E+00
 cg2d: Sum(rhs),rhsMax =  -3.01291921545044E-06  8.43635774052594E+00
 cg2d: Sum(rhs),rhsMax =  -2.77375344914788E-12  1.49407623634744E-02
 EXTERNAL_FIELDS_LOAD, it=   3600570 : Reading new data, i0,i1=   10   11 (prev=    9   11 )
 DIC_FIELDS_LOAD, it=   3600570 : Reading new data, i0,i1=   10   11 (prev=    9   10 )
 cg2d: Sum(rhs),rhsMax =  -1.93892063293788E-06  8.45903199959563E+00
 cg2d: Sum(rhs),rhsMax =  -1.94025963651256E-06  8.45319758754606E+00
 cg2d: Sum(rhs),rhsMax =  -1.94157829724872E-06  8.44745760773264E+00
 cg2d: Sum(rhs),rhsMax =  -2.56585612845583E-06  8.44183638030930E+00
 cg2d: Sum(rhs),rhsMax =  -2.79247111545367E-12  1.47130427882125E-02
 EXTERNAL_FIELDS_LOAD, it=   3600570 : Reading new data, i0,i1=   10   11 (prev=    9   11 )
 DIC_FIELDS_LOAD, it=   3600570 : Reading new data, i0,i1=   10   11 (prev=    9   10 )
 cg2d: Sum(rhs),rhsMax =  -1.93892063293788E-06  8.45903199959563E+00
 cg2d: Sum(rhs),rhsMax =  -1.94025963651256E-06  8.45319758754606E+00
 cg2d: Sum(rhs),rhsMax =  -2.10602654249215E-06  8.44745778282452E+00
 cg2d: Sum(rhs),rhsMax =  -2.70937092206047E-12  1.46992043522898E-02
 EXTERNAL_FIELDS_LOAD, it=   3600570 : Reading new data, i0,i1=   10   11 (prev=    9   11 )
 DIC_FIELDS_LOAD, it=   3600570 : Reading new data, i0,i1=   10   11 (prev=    9   10 )
 cg2d: Sum(rhs),rhsMax =  -1.93892063293788E-06  8.45903199959563E+00
 cg2d: Sum(rhs),rhsMax =  -1.60704877316675E-06  8.45319770379705E+00
 cg2d: Sum(rhs),rhsMax =  -2.55726342879292E-12  1.47992643602534E-02
 EXTERNAL_FIELDS_LOAD, it=   3600570 : Reading new data, i0,i1=   10   11 (prev=    9   11 )
 DIC_FIELDS_LOAD, it=   3600570 : Reading new data, i0,i1=   10   11 (prev=    9   10 )
 cg2d: Sum(rhs),rhsMax =  -1.93892077504643E-06  8.45903200006935E+00
 cg2d: Sum(rhs),rhsMax =  -2.44716052977267E-12  1.49735591601715E-02
 cg2d: Sum(rhs),rhsMax =  -2.44783471714527E-07  8.51897418323859E+00
 cg2d: Sum(rhs),rhsMax =  -2.44957739425899E-07  8.51294224856493E+00
 cg2d: Sum(rhs),rhsMax =  -2.45131850817870E-07  8.50690564885983E+00
 cg2d: Sum(rhs),rhsMax =  -2.45306104318388E-07  8.50087010325378E+00
 cg2d: Sum(rhs),rhsMax =  -2.45480840987966E-07  8.49484030788981E+00
 cg2d: Sum(rhs),rhsMax =  -2.45655421338142E-07  8.48882091652209E+00
 cg2d: Sum(rhs),rhsMax =  -2.45829966161182E-07  8.48281648598470E+00
 cg2d: Sum(rhs),rhsMax =  -2.46003693860075E-07  8.47683141604414E+00
 cg2d: Sum(rhs),rhsMax =  -2.46177087603883E-07  8.47086986481543E+00
 cg2d: Sum(rhs),rhsMax =  -2.46350516874827E-07  8.46493565647207E+00
 cg2d: Sum(rhs),rhsMax =  -2.44783471714527E-07  8.51897418323859E+00
 cg2d: Sum(rhs),rhsMax =  -2.44957739425899E-07  8.51294224856493E+00
 cg2d: Sum(rhs),rhsMax =  -2.45131850817870E-07  8.50690564885983E+00
 cg2d: Sum(rhs),rhsMax =  -2.45306104318388E-07  8.50087010325378E+00
 cg2d: Sum(rhs),rhsMax =  -2.45480840987966E-07  8.49484030788981E+00
 cg2d: Sum(rhs),rhsMax =  -2.45655421338142E-07  8.48882091652209E+00
 cg2d: Sum(rhs),rhsMax =  -2.45829966161182E-07  8.48281648598470E+00
 cg2d: Sum(rhs),rhsMax =  -2.46003693860075E-07  8.47683141604414E+00
 cg2d: Sum(rhs),rhsMax =  -2.46177087603883E-07  8.47086986481543E+00
 cg2d: Sum(rhs),rhsMax =  -3.77393284622940E-07  8.46493542308222E+00
 cg2d: Sum(rhs),rhsMax =  -2.35054684050162E-12  1.54303913871340E-02
 cg2d: Sum(rhs),rhsMax =  -2.44783471714527E-07  8.51897418323859E+00
 cg2d: Sum(rhs),rhsMax =  -2.44957739425899E-07  8.51294224856493E+00
 cg2d: Sum(rhs),rhsMax =  -2.45131850817870E-07  8.50690564885983E+00
 cg2d: Sum(rhs),rhsMax =  -2.45306104318388E-07  8.50087010325378E+00
 cg2d: Sum(rhs),rhsMax =  -2.45480840987966E-07  8.49484030788981E+00
 cg2d: Sum(rhs),rhsMax =  -2.45655421338142E-07  8.48882091652209E+00
 cg2d: Sum(rhs),rhsMax =  -2.45829966161182E-07  8.48281648598470E+00
 cg2d: Sum(rhs),rhsMax =  -2.46003693860075E-07  8.47683141604414E+00
 cg2d: Sum(rhs),rhsMax =  -8.63529692196607E-10  8.47086989974540E+00
 cg2d: Sum(rhs),rhsMax =  -2.15806539305419E-12  1.56367743124534E-02
 cg2d: Sum(rhs),rhsMax =  -2.44783471714527E-07  8.51897418323859E+00
 cg2d: Sum(rhs),rhsMax =  -2.44957739425899E-07  8.51294224856493E+00
 cg2d: Sum(rhs),rhsMax =  -2.45131850817870E-07  8.50690564885983E+00
 cg2d: Sum(rhs),rhsMax =  -2.45306104318388E-07  8.50087010325378E+00
 cg2d: Sum(rhs),rhsMax =  -2.45480840987966E-07  8.49484030788981E+00
 cg2d: Sum(rhs),rhsMax =  -2.45655421338142E-07  8.48882091652209E+00
 cg2d: Sum(rhs),rhsMax =  -2.45829966161182E-07  8.48281648598470E+00
 cg2d: Sum(rhs),rhsMax =   3.16973725489333E-07  8.47683117356058E+00
 cg2d: Sum(rhs),rhsMax =  -2.06029637794813E-12  1.57651356083084E-02
 cg2d: Sum(rhs),rhsMax =  -2.44783471714527E-07  8.51897418323859E+00
 cg2d: Sum(rhs),rhsMax =  -2.44957739425899E-07  8.51294224856493E+00
 cg2d: Sum(rhs),rhsMax =  -2.45131850817870E-07  8.50690564885983E+00
 cg2d: Sum(rhs),rhsMax =  -2.45306104318388E-07  8.50087010325378E+00
 cg2d: Sum(rhs),rhsMax =  -2.45480840987966E-07  8.49484030788981E+00
 cg2d: Sum(rhs),rhsMax =  -2.45655421338142E-07  8.48882091652209E+00
 cg2d: Sum(rhs),rhsMax =   8.05750488552803E-09  8.48281642018232E+00
 cg2d: Sum(rhs),rhsMax =  -1.87371992921292E-12  1.59307606170013E-02
 cg2d: Sum(rhs),rhsMax =  -2.44783471714527E-07  8.51897418323859E+00
 cg2d: Sum(rhs),rhsMax =  -2.44957739425899E-07  8.51294224856493E+00
 cg2d: Sum(rhs),rhsMax =  -2.45131850817870E-07  8.50690564885983E+00
 cg2d: Sum(rhs),rhsMax =  -2.45306104318388E-07  8.50087010325378E+00
 cg2d: Sum(rhs),rhsMax =  -2.45480840987966E-07  8.49484030788981E+00
 cg2d: Sum(rhs),rhsMax =   2.47404344122515E-07  8.48882119959223E+00
 cg2d: Sum(rhs),rhsMax =  -1.77853565208608E-12  1.60937072469015E-02
 cg2d: Sum(rhs),rhsMax =  -2.44783471714527E-07  8.51897418323859E+00
 cg2d: Sum(rhs),rhsMax =  -2.44957739425899E-07  8.51294224856493E+00
 cg2d: Sum(rhs),rhsMax =  -2.45131850817870E-07  8.50690564885983E+00
 cg2d: Sum(rhs),rhsMax =  -2.45306104318388E-07  8.50087010325378E+00
 cg2d: Sum(rhs),rhsMax =  -2.18617252301101E-07  8.49484023571677E+00
 cg2d: Sum(rhs),rhsMax =  -1.68863187322010E-12  1.61843917098007E-02
 cg2d: Sum(rhs),rhsMax =  -2.44783471714527E-07  8.51897418323859E+00
 cg2d: Sum(rhs),rhsMax =  -2.44957739425899E-07  8.51294224856493E+00
 cg2d: Sum(rhs),rhsMax =  -2.45131850817870E-07  8.50690564885983E+00
 cg2d: Sum(rhs),rhsMax =  -4.27073146624934E-07  8.50086974232587E+00
 cg2d: Sum(rhs),rhsMax =  -1.62000968195741E-12  1.61715256542923E-02
 cg2d: Sum(rhs),rhsMax =  -2.44783471714527E-07  8.51897418323859E+00
 cg2d: Sum(rhs),rhsMax =  -2.44957739425899E-07  8.51294224856493E+00
 cg2d: Sum(rhs),rhsMax =   5.00211370990655E-07  8.50690585259579E+00
 cg2d: Sum(rhs),rhsMax =  -1.51378909407640E-12  1.60788963178467E-02
 cg2d: Sum(rhs),rhsMax =  -2.44783471714527E-07  8.51897418323859E+00
 cg2d: Sum(rhs),rhsMax =  -8.74342504175729E-07  8.51294256234188E+00
 cg2d: Sum(rhs),rhsMax =  -1.39387112962908E-12  1.67689071618158E-02
 cg2d: Sum(rhs),rhsMax =  -2.44783670666493E-07  8.51897418283405E+00
 cg2d: Sum(rhs),rhsMax =  -1.22224452780983E-12  1.71573885564380E-02
 DIC_SURFFORCING_INIT, it=   3600000 : Reading new data, i0,i1=   12    1
 QQ: pCO2 approximation method
 QQ first guess pH 8.2869849781645275,  7.129213793781922,  34.1535348423009,  2.0282,  5.43799999999999991E-4,  8.08490416966378689E-3,  2.3086000000000002
(PID.TID 0000.0001) // =======================================================
(PID.TID 0000.0001) // Model current state
(PID.TID 0000.0001) // =======================================================
(PID.TID 0000.0001) 
 EXTERNAL_FIELDS_LOAD, it=   3600000 : Reading new data, i0,i1=   12    1 (prev=   12    0 )
 DIC_FIELDS_LOAD, it=   3600000 : Reading new data, i0,i1=   12    1 (prev=   12    0 )
 cg2d: Sum(rhs),rhsMax =  -9.92433868418630E-08  8.73439671821315E+00
 cg2d: Sum(rhs),rhsMax =  -9.91844260056496E-08  8.73957958587058E+00
 cg2d: Sum(rhs),rhsMax =  -9.91252449011881E-08  8.74478969091806E+00
 cg2d: Sum(rhs),rhsMax =  -9.90665185440776E-08  8.75002495477880E+00
 cg2d: Sum(rhs),rhsMax =  -9.90068542705558E-08  8.75528284057604E+00
 cg2d: Sum(rhs),rhsMax =  -9.89473534218632E-08  8.76056047500076E+00
 cg2d: Sum(rhs),rhsMax =  -9.88878241514612E-08  8.76585475900637E+00
 cg2d: Sum(rhs),rhsMax =  -9.88279893476829E-08  8.77116249138180E+00
 cg2d: Sum(rhs),rhsMax =  -9.87682469144602E-08  8.77648047471154E+00
 cg2d: Sum(rhs),rhsMax =  -9.87087602766223E-08  8.78180560756084E+00
 cg2d: Sum(rhs),rhsMax =  -9.86489112619893E-08  8.78713494778165E+00
 cg2d: Sum(rhs),rhsMax =  -9.85891404070571E-08  8.79246575399440E+00
 cg2d: Sum(rhs),rhsMax =  -9.85293340249882E-08  8.79779549299699E+00
 cg2d: Sum(rhs),rhsMax =  -9.84700747608258E-08  8.80312181092759E+00
 cg2d: Sum(rhs),rhsMax =  -9.84108581292276E-08  8.80844249631459E+00
 cg2d: Sum(rhs),rhsMax =  -9.83516486030567E-08  8.81375547068360E+00
 cg2d: Sum(rhs),rhsMax =  -9.82926522397065E-08  8.81905885446822E+00
 cg2d: Sum(rhs),rhsMax =  -9.82337553523394E-08  8.82435106608147E+00
 cg2d: Sum(rhs),rhsMax =  -9.81751568929212E-08  8.82963093738125E+00
 cg2d: Sum(rhs),rhsMax =  -9.81166650149135E-08  8.83489782452132E+00
 cg2d: Sum(rhs),rhsMax =  -9.80585213028462E-08  8.84015168145881E+00
 cg2d: Sum(rhs),rhsMax =  -9.80007470730015E-08  8.84539306572338E+00
 cg2d: Sum(rhs),rhsMax =  -9.79429586323022E-08  8.85062306296846E+00
 cg2d: Sum(rhs),rhsMax =  -9.78853904598509E-08  8.85584316140559E+00
 cg2d: Sum(rhs),rhsMax =  -9.78280425556477E-08  8.86105508303604E+00
 cg2d: Sum(rhs),rhsMax =  -9.77709291305473E-08  8.86626061391844E+00
 cg2d: Sum(rhs),rhsMax =  -9.77132472712583E-08  8.87146147123075E+00
 cg2d: Sum(rhs),rhsMax =  -9.76563327981239E-08  8.87665923110881E+00
 cg2d: Sum(rhs),rhsMax =  -9.75990843699037E-08  8.88185530584736E+00
 cg2d: Sum(rhs),rhsMax =  -9.75420704207863E-08  8.88705095973601E+00
 EXTERNAL_FIELDS_LOAD, it=   3600030 : Reading new data, i0,i1=    1    2 (prev=   12    1 )
 DIC_FIELDS_LOAD, it=   3600030 : Reading new data, i0,i1=    1    2 (prev=   12    1 )
 cg2d: Sum(rhs),rhsMax =  -9.74853406887632E-08  8.89224735691429E+00
 cg2d: Sum(rhs),rhsMax =  -9.74287814869967E-08  8.89742706375180E+00
 cg2d: Sum(rhs),rhsMax =  -9.73723857100595E-08  8.90258000132907E+00
 cg2d: Sum(rhs),rhsMax =  -9.73164659967551E-08  8.90769672951691E+00
 cg2d: Sum(rhs),rhsMax =  -9.72612284044772E-08  8.91276878246959E+00
 cg2d: Sum(rhs),rhsMax =  -9.72070637317302E-08  8.91778889429735E+00
 cg2d: Sum(rhs),rhsMax =  -9.71530482729577E-08  8.92275113682099E+00
 cg2d: Sum(rhs),rhsMax =  -9.70993241367069E-08  8.92765100404361E+00
 cg2d: Sum(rhs),rhsMax =  -9.70471916161841E-08  8.93248545016401E+00
 cg2d: Sum(rhs),rhsMax =  -9.69955280538670E-08  8.93725287491615E+00
 cg2d: Sum(rhs),rhsMax =  -9.69441273923621E-08  8.94195305183593E+00
 cg2d: Sum(rhs),rhsMax =  -9.68941833434656E-08  8.94658701582531E+00
 cg2d: Sum(rhs),rhsMax =  -9.68450208915783E-08  8.95115692214719E+00
 cg2d: Sum(rhs),rhsMax =  -9.67962705544778E-08  8.95566589123099E+00
 cg2d: Sum(rhs),rhsMax =  -9.67482165492584E-08  8.96011786358850E+00
 cg2d: Sum(rhs),rhsMax =  -9.67008020325011E-08  8.96451747891563E+00
 cg2d: Sum(rhs),rhsMax =  -9.66539346336504E-08  8.96886998187158E+00
 cg2d: Sum(rhs),rhsMax =  -9.66078843589457E-08  8.97318115409823E+00
 cg2d: Sum(rhs),rhsMax =  -9.65621254067628E-08  8.97745726495199E+00
 cg2d: Sum(rhs),rhsMax =  -9.65159685506478E-08  8.98170502198163E+00
 cg2d: Sum(rhs),rhsMax =  -9.64709272466280E-08  8.98593151889555E+00
 cg2d: Sum(rhs),rhsMax =  -9.64258006774799E-08  8.99014423145949E+00
 cg2d: Sum(rhs),rhsMax =  -9.63806954246138E-08  8.99435085408351E+00
 cg2d: Sum(rhs),rhsMax =  -9.63354978011921E-08  8.99855914272681E+00
 cg2d: Sum(rhs),rhsMax =  -9.62904493917449E-08  9.00277662786875E+00
 cg2d: Sum(rhs),rhsMax =  -9.62449746566563E-08  9.00700998220796E+00
 cg2d: Sum(rhs),rhsMax =  -9.61997557169525E-08  9.01126574761483E+00
 cg2d: Sum(rhs),rhsMax =  -9.61540180810516E-08  9.01555039729210E+00
 cg2d: Sum(rhs),rhsMax =  -9.61077120109621E-08  9.01986971435378E+00
 cg2d: Sum(rhs),rhsMax =  -9.60613775191632E-08  9.02422880815445E+00
 cg2d: Sum(rhs),rhsMax =  -9.60143182737738E-08  9.02863205182447E+00
 cg2d: Sum(rhs),rhsMax =  -9.59668398081703E-08  9.03308295193821E+00
 cg2d: Sum(rhs),rhsMax =  -9.59189492277801E-08  9.03758400719746E+00
 cg2d: Sum(rhs),rhsMax =  -9.58706323217484E-08  9.04213663854453E+00
 cg2d: Sum(rhs),rhsMax =  -9.58215622404168E-08  9.04674109185253E+00
 cg2d: Sum(rhs),rhsMax =  -9.57721724148541E-08  9.05139640217902E+00
 cg2d: Sum(rhs),rhsMax =  -9.57223775799321E-08  9.05610040614876E+00
 cg2d: Sum(rhs),rhsMax =  -9.56718224642827E-08  9.06084979109159E+00
 cg2d: Sum(rhs),rhsMax =  -9.56211039238042E-08  9.06564017672268E+00
 cg2d: Sum(rhs),rhsMax =  -9.55700798499493E-08  9.07046622792088E+00
 cg2d: Sum(rhs),rhsMax =  -9.55189918272481E-08  9.07532179655311E+00
 cg2d: Sum(rhs),rhsMax =  -9.54672145780933E-08  9.08020008054443E+00
 cg2d: Sum(rhs),rhsMax =  -9.54156860188959E-08  9.08509379067778E+00
 cg2d: Sum(rhs),rhsMax =  -9.53640864054250E-08  9.08999532389517E+00
 cg2d: Sum(rhs),rhsMax =  -9.53120391500306E-08  9.09489685062687E+00
 cg2d: Sum(rhs),rhsMax =  -9.52604963799786E-08  9.09979078670731E+00
 cg2d: Sum(rhs),rhsMax =  -9.52091738781746E-08  9.10466952325132E+00
 cg2d: Sum(rhs),rhsMax =  -9.51581995423112E-08  9.10952586151125E+00
 cg2d: Sum(rhs),rhsMax =  -9.51075378452515E-08  9.11435305322486E+00
 cg2d: Sum(rhs),rhsMax =  -9.50568974644739E-08  9.11914489544444E+00
 cg2d: Sum(rhs),rhsMax =  -9.50070173644235E-08  9.12389583482653E+00
 cg2d: Sum(rhs),rhsMax =  -9.49582670273230E-08  9.12860106773695E+00
 cg2d: Sum(rhs),rhsMax =  -9.49094669522310E-08  9.13325671324743E+00
 cg2d: Sum(rhs),rhsMax =  -9.48612637330370E-08  9.13785989332165E+00
 cg2d: Sum(rhs),rhsMax =  -9.48139060596986E-08  9.14240888612431E+00
 cg2d: Sum(rhs),rhsMax =  -9.47671381368309E-08  9.14690322805975E+00
 cg2d: Sum(rhs),rhsMax =  -9.47210025969980E-08  9.15134376400067E+00
 cg2d: Sum(rhs),rhsMax =  -9.46753857533622E-08  9.15573262291172E+00
 cg2d: Sum(rhs),rhsMax =  -9.46305078741716E-08  9.16007311317651E+00
 cg2d: Sum(rhs),rhsMax =  -9.45855020972886E-08  9.16436954661381E+00
 EXTERNAL_FIELDS_LOAD, it=   3600090 : Reading new data, i0,i1=    2    3 (prev=    1    2 )
 DIC_FIELDS_LOAD, it=   3600090 : Reading new data, i0,i1=    2    3 (prev=    1    2 )
 cg2d: Sum(rhs),rhsMax =  -9.45416047670733E-08  9.16862700792054E+00
 cg2d: Sum(rhs),rhsMax =  -9.44977784911316E-08  9.17286965792043E+00
 cg2d: Sum(rhs),rhsMax =  -9.44538882663437E-08  9.17711460232796E+00
 cg2d: Sum(rhs),rhsMax =  -9.44097777733077E-08  9.18137827264839E+00
 cg2d: Sum(rhs),rhsMax =  -9.43655606988614E-08  9.18567586102450E+00
 cg2d: Sum(rhs),rhsMax =  -9.43208533499273E-08  9.19002086507332E+00
 cg2d: Sum(rhs),rhsMax =  -9.42755065125311E-08  9.19442473147613E+00
 cg2d: Sum(rhs),rhsMax =  -9.42294988703907E-08  9.19889660310093E+00
 cg2d: Sum(rhs),rhsMax =  -9.41831217460276E-08  9.20344317156002E+00
 cg2d: Sum(rhs),rhsMax =  -9.41357711781166E-08  9.20806863385625E+00
 cg2d: Sum(rhs),rhsMax =  -9.40875679589226E-08  9.21277472508850E+00
 cg2d: Sum(rhs),rhsMax =  -9.40387323566938E-08  9.21756082935263E+00
 cg2d: Sum(rhs),rhsMax =  -9.39891506845925E-08  9.22242415169496E+00
 cg2d: Sum(rhs),rhsMax =  -9.39387589937724E-08  9.22735992735964E+00
 cg2d: Sum(rhs),rhsMax =  -9.38874578082505E-08  9.23236166048178E+00
 cg2d: Sum(rhs),rhsMax =  -9.38360713576003E-08  9.23742136926884E+00
 cg2d: Sum(rhs),rhsMax =  -9.37847204340869E-08  9.24252982829311E+00
 cg2d: Sum(rhs),rhsMax =  -9.37326518624104E-08  9.24767682825910E+00
 cg2d: Sum(rhs),rhsMax =  -9.36799651185538E-08  9.25285135651627E+00
 cg2d: Sum(rhs),rhsMax =  -9.36278468088858E-08  9.25804181556396E+00
 cg2d: Sum(rhs),rhsMax =  -9.35753803332773E-08  9.26323624437734E+00
 cg2d: Sum(rhs),rhsMax =  -9.35233543941649E-08  9.26842252954541E+00
 cg2d: Sum(rhs),rhsMax =  -9.34712076627875E-08  9.27358855590945E+00
 cg2d: Sum(rhs),rhsMax =  -9.34198851609835E-08  9.27872221865362E+00
 cg2d: Sum(rhs),rhsMax =  -9.33687331894362E-08  9.28381269175841E+00
 cg2d: Sum(rhs),rhsMax =  -9.33183130769066E-08  9.28884990364347E+00
 cg2d: Sum(rhs),rhsMax =  -9.32684542931383E-08  9.29382460831193E+00
 cg2d: Sum(rhs),rhsMax =  -9.32194410552256E-08  9.29872876125425E+00
 cg2d: Sum(rhs),rhsMax =  -9.31711383600486E-08  9.30355578941157E+00
 cg2d: Sum(rhs),rhsMax =  -9.31240364820951E-08  9.30830071441787E+00
 cg2d: Sum(rhs),rhsMax =  -9.30773893514925E-08  9.31296016039586E+00
 cg2d: Sum(rhs),rhsMax =  -9.30318719838397E-08  9.31753230345820E+00
 cg2d: Sum(rhs),rhsMax =  -9.29872783217434E-08  9.32201677457960E+00
 cg2d: Sum(rhs),rhsMax =  -9.29437931063148E-08  9.32641453687162E+00
 cg2d: Sum(rhs),rhsMax =  -9.29007910599466E-08  9.33072777407330E+00
 cg2d: Sum(rhs),rhsMax =  -9.28590253579387E-08  9.33495977832897E+00
 cg2d: Sum(rhs),rhsMax =  -9.28177001924269E-08  9.33911483571782E+00
 cg2d: Sum(rhs),rhsMax =  -9.27770358316593E-08  9.34319809772528E+00
 cg2d: Sum(rhs),rhsMax =  -9.27373591252945E-08  9.34721542637213E+00
 cg2d: Sum(rhs),rhsMax =  -9.26982295368362E-08  9.35117321728378E+00
 cg2d: Sum(rhs),rhsMax =  -9.26594978523099E-08  9.35507820898651E+00
 cg2d: Sum(rhs),rhsMax =  -9.26212777585533E-08  9.35893728101038E+00
 cg2d: Sum(rhs),rhsMax =  -9.25836900478316E-08  9.36275724876052E+00
 cg2d: Sum(rhs),rhsMax =  -9.25467347201447E-08  9.36654466497940E+00
 cg2d: Sum(rhs),rhsMax =  -9.25093388559617E-08  9.37030563739009E+00
 cg2d: Sum(rhs),rhsMax =  -9.24723693174201E-08  9.37404566529748E+00
 cg2d: Sum(rhs),rhsMax =  -9.24358261045199E-08  9.37776950669782E+00
 cg2d: Sum(rhs),rhsMax =  -9.23998015878169E-08  9.38148107939576E+00
 cg2d: Sum(rhs),rhsMax =  -9.23633649563271E-08  9.38518340080342E+00
 cg2d: Sum(rhs),rhsMax =  -9.23271628039402E-08  9.38887856431341E+00
 cg2d: Sum(rhs),rhsMax =  -9.22907545941598E-08  9.39256775253961E+00
 cg2d: Sum(rhs),rhsMax =  -9.22549361348501E-08  9.39625127829926E+00
 cg2d: Sum(rhs),rhsMax =  -9.22186487173349E-08  9.39992865313115E+00
 cg2d: Sum(rhs),rhsMax =  -9.21831713185384E-08  9.40359867110262E+00
 cg2d: Sum(rhs),rhsMax =  -9.21473457538013E-08  9.40725949891390E+00
 cg2d: Sum(rhs),rhsMax =  -9.21119038821416E-08  9.41090875978471E+00
 cg2d: Sum(rhs),rhsMax =  -9.20763412182168E-08  9.41454361858659E+00
 cg2d: Sum(rhs),rhsMax =  -9.20410343496769E-08  9.41816086827301E+00
 cg2d: Sum(rhs),rhsMax =  -9.20060685416502E-08  9.42175701532902E+00
 cg2d: Sum(rhs),rhsMax =  -9.19711879987517E-08  9.42532836100955E+00
 EXTERNAL_FIELDS_LOAD, it=   3600150 : Reading new data, i0,i1=    3    4 (prev=    2    3 )
 DIC_FIELDS_LOAD, it=   3600150 : Reading new data, i0,i1=    3    4 (prev=    2    3 )
 cg2d: Sum(rhs),rhsMax =  -9.19367622032041E-08  9.42887108055882E+00
 cg2d: Sum(rhs),rhsMax =  -9.19030327395376E-08  9.43235832256638E+00
 cg2d: Sum(rhs),rhsMax =  -9.18696727580937E-08  9.43577294710938E+00
 cg2d: Sum(rhs),rhsMax =  -9.18375349101552E-08  9.43909901719340E+00
 cg2d: Sum(rhs),rhsMax =  -9.18056457521743E-08  9.44232226351574E+00
 cg2d: Sum(rhs),rhsMax =  -9.17754618967592E-08  9.44543045713848E+00
 cg2d: Sum(rhs),rhsMax =  -9.17468696570722E-08  9.44841368652191E+00
 cg2d: Sum(rhs),rhsMax =  -9.17188671678559E-08  9.45126453300903E+00
 cg2d: Sum(rhs),rhsMax =  -9.16929749905648E-08  9.45397814472091E+00
 cg2d: Sum(rhs),rhsMax =  -9.16680278351123E-08  9.45655223330268E+00
 cg2d: Sum(rhs),rhsMax =  -9.16445941356869E-08  9.45898700078271E+00
 cg2d: Sum(rhs),rhsMax =  -9.16223754643397E-08  9.46128500172268E+00
 cg2d: Sum(rhs),rhsMax =  -9.16011231311131E-08  9.46345095767279E+00
 cg2d: Sum(rhs),rhsMax =  -9.15811568802383E-08  9.46549153513779E+00
 cg2d: Sum(rhs),rhsMax =  -9.15625619768434E-08  9.46741508859273E+00
 cg2d: Sum(rhs),rhsMax =  -9.15451252581079E-08  9.46923137659912E+00
 cg2d: Sum(rhs),rhsMax =  -9.15285980340741E-08  9.47095124324780E+00
 cg2d: Sum(rhs),rhsMax =  -9.15126108225195E-08  9.47258633929544E+00
 cg2d: Sum(rhs),rhsMax =  -9.14974762622478E-08  9.47414881667898E+00
 cg2d: Sum(rhs),rhsMax =  -9.14831588261222E-08  9.47565102854520E+00
 cg2d: Sum(rhs),rhsMax =  -9.14691185016636E-08  9.47710524161440E+00
 cg2d: Sum(rhs),rhsMax =  -9.14552913400257E-08  9.47852337330871E+00
 cg2d: Sum(rhs),rhsMax =  -9.14417910280463E-08  9.47991675839448E+00
 cg2d: Sum(rhs),rhsMax =  -9.14288023068366E-08  9.48129594936036E+00
 cg2d: Sum(rhs),rhsMax =  -9.14153162057119E-08  9.48267055268677E+00
 cg2d: Sum(rhs),rhsMax =  -9.14016951014673E-08  9.48404910672501E+00
 cg2d: Sum(rhs),rhsMax =  -9.13883866360266E-08  9.48543898881096E+00
 cg2d: Sum(rhs),rhsMax =  -9.13749147457565E-08  9.48684634838855E+00
 cg2d: Sum(rhs),rhsMax =  -9.13611231112554E-08  9.48827608016959E+00
 cg2d: Sum(rhs),rhsMax =  -9.13465854068818E-08  9.48973182637241E+00
 cg2d: Sum(rhs),rhsMax =  -9.13324456064402E-08  9.49121598932757E+00
 cg2d: Sum(rhs),rhsMax =  -9.13176805283911E-08  9.49272976482376E+00
 cg2d: Sum(rhs),rhsMax =  -9.13029793991882E-08  9.49427318407705E+00
 cg2d: Sum(rhs),rhsMax =  -9.12876600978052E-08  9.49584517202971E+00
 cg2d: Sum(rhs),rhsMax =  -9.12722768475760E-08  9.49744362566448E+00
 cg2d: Sum(rhs),rhsMax =  -9.12563962174318E-08  9.49906550905340E+00
 cg2d: Sum(rhs),rhsMax =  -9.12406292741252E-08  9.50070696299551E+00
 cg2d: Sum(rhs),rhsMax =  -9.12245567974423E-08  9.50236342680402E+00
 cg2d: Sum(rhs),rhsMax =  -9.12086122184519E-08  9.50402976802920E+00
 cg2d: Sum(rhs),rhsMax =  -9.11920636781360E-08  9.50570042893596E+00
 cg2d: Sum(rhs),rhsMax =  -9.11760835720088E-08  9.50736956748404E+00
 cg2d: Sum(rhs),rhsMax =  -9.11599897790438E-08  9.50903122489705E+00
 cg2d: Sum(rhs),rhsMax =  -9.11439812512072E-08  9.51067944299842E+00
 cg2d: Sum(rhs),rhsMax =  -9.11286619498242E-08  9.51230836255520E+00
 cg2d: Sum(rhs),rhsMax =  -9.11128452685261E-08  9.51391232343393E+00
 cg2d: Sum(rhs),rhsMax =  -9.10978172896648E-08  9.51548598638282E+00
 cg2d: Sum(rhs),rhsMax =  -9.10825903588375E-08  9.51702443978652E+00
 cg2d: Sum(rhs),rhsMax =  -9.10679744947629E-08  9.51852327194360E+00
 cg2d: Sum(rhs),rhsMax =  -9.10538062726118E-08  9.51997861079381E+00
 cg2d: Sum(rhs),rhsMax =  -9.10403272769145E-08  9.52138713289450E+00
 cg2d: Sum(rhs),rhsMax =  -9.10271680254482E-08  9.52274605554116E+00
 cg2d: Sum(rhs),rhsMax =  -9.10143498344951E-08  9.52405313717331E+00
 cg2d: Sum(rhs),rhsMax =  -9.10022919242692E-08  9.52530666028232E+00
 cg2d: Sum(rhs),rhsMax =  -9.09905324419924E-08  9.52650541109617E+00
 cg2d: Sum(rhs),rhsMax =  -9.09794692915966E-08  9.52764864727963E+00
 cg2d: Sum(rhs),rhsMax =  -9.09689816808168E-08  9.52873605079492E+00
 cg2d: Sum(rhs),rhsMax =  -9.09588422359775E-08  9.52976767849440E+00
 cg2d: Sum(rhs),rhsMax =  -9.09493280687457E-08  9.53074391639987E+00
 cg2d: Sum(rhs),rhsMax =  -9.09404391791213E-08  9.53166530103624E+00
 cg2d: Sum(rhs),rhsMax =  -9.09316284491979E-08  9.53253252588939E+00
 EXTERNAL_FIELDS_LOAD, it=   3600210 : Reading new data, i0,i1=    4    5 (prev=    3    4 )
 DIC_FIELDS_LOAD, it=   3600210 : Reading new data, i0,i1=    4    5 (prev=    3    4 )
 cg2d: Sum(rhs),rhsMax =  -9.09236845814121E-08  9.53334634295211E+00
 cg2d: Sum(rhs),rhsMax =  -9.09162238826866E-08  9.53412016630968E+00
 cg2d: Sum(rhs),rhsMax =  -9.09088555545168E-08  9.53486144691540E+00
 cg2d: Sum(rhs),rhsMax =  -9.09020556605356E-08  9.53557668814411E+00
 cg2d: Sum(rhs),rhsMax =  -9.08950781308704E-08  9.53626990934916E+00
 cg2d: Sum(rhs),rhsMax =  -9.08885269268467E-08  9.53694479201801E+00
 cg2d: Sum(rhs),rhsMax =  -9.08819686173956E-08  9.53760402798875E+00
 cg2d: Sum(rhs),rhsMax =  -9.08758792661502E-08  9.53824943192211E+00
 cg2d: Sum(rhs),rhsMax =  -9.08692001644340E-08  9.53888215688552E+00
 cg2d: Sum(rhs),rhsMax =  -9.08633310814366E-08  9.53950304357000E+00
 cg2d: Sum(rhs),rhsMax =  -9.08575117364308E-08  9.54011304176576E+00
 cg2d: Sum(rhs),rhsMax =  -9.08516142317239E-08  9.54071301635899E+00
 cg2d: Sum(rhs),rhsMax =  -9.08458943627011E-08  9.54130322912294E+00
 cg2d: Sum(rhs),rhsMax =  -9.08400252797037E-08  9.54188272003942E+00
 cg2d: Sum(rhs),rhsMax =  -9.08349306882883E-08  9.54244934290944E+00
 cg2d: Sum(rhs),rhsMax =  -9.08295305634965E-08  9.54299999628384E+00
 cg2d: Sum(rhs),rhsMax =  -9.08241872821236E-08  9.54353092308816E+00
 cg2d: Sum(rhs),rhsMax =  -9.08189861092978E-08  9.54403796863502E+00
 cg2d: Sum(rhs),rhsMax =  -9.08142894218145E-08  9.54451678452915E+00
 cg2d: Sum(rhs),rhsMax =  -9.08097916862971E-08  9.54496303374895E+00
 cg2d: Sum(rhs),rhsMax =  -9.08056705384297E-08  9.54537256688658E+00
 cg2d: Sum(rhs),rhsMax =  -9.08016417611179E-08  9.54574155534994E+00
 cg2d: Sum(rhs),rhsMax =  -9.07979256226099E-08  9.54606657177462E+00
 cg2d: Sum(rhs),rhsMax =  -9.07952681927782E-08  9.54634467959792E+00
 cg2d: Sum(rhs),rhsMax =  -9.07924189164078E-08  9.54657345840157E+00
 cg2d: Sum(rhs),rhsMax =  -9.07902162339269E-08  9.54675102924543E+00
 cg2d: Sum(rhs),rhsMax =  -9.07886743561903E-08  9.54687605379506E+00
 cg2d: Sum(rhs),rhsMax =  -9.07877648614885E-08  9.54694771403842E+00
 cg2d: Sum(rhs),rhsMax =  -9.07869193156330E-08  9.54696566951997E+00
 cg2d: Sum(rhs),rhsMax =  -9.07865995714019E-08  9.54692999068711E+00
 cg2d: Sum(rhs),rhsMax =  -9.07872106381546E-08  9.54684108541375E+00
 cg2d: Sum(rhs),rhsMax =  -9.07884682987969E-08  9.54669963264824E+00
 cg2d: Sum(rhs),rhsMax =  -9.07898467517043E-08  9.54650651972953E+00
 cg2d: Sum(rhs),rhsMax =  -9.07915449488428E-08  9.54626274758502E+00
 cg2d: Sum(rhs),rhsMax =  -9.07941455352557E-08  9.54596935750525E+00
 cg2d: Sum(rhs),rhsMax =  -9.07970800767544E-08  9.54562738075971E+00
 cg2d: Sum(rhs),rhsMax =  -9.08000501453898E-08  9.54523778248193E+00
 cg2d: Sum(rhs),rhsMax =  -9.08038089164620E-08  9.54480140259877E+00
 cg2d: Sum(rhs),rhsMax =  -9.08078732209106E-08  9.54431888382345E+00
 cg2d: Sum(rhs),rhsMax =  -9.08128896526250E-08  9.54379063440704E+00
 cg2d: Sum(rhs),rhsMax =  -9.08179274006216E-08  9.54321682610369E+00
 cg2d: Sum(rhs),rhsMax =  -9.08231072571652E-08  9.54259741627488E+00
 cg2d: Sum(rhs),rhsMax =  -9.08294239820862E-08  9.54193218180504E+00
 cg2d: Sum(rhs),rhsMax =  -9.08357407070071E-08  9.54122075566689E+00
 cg2d: Sum(rhs),rhsMax =  -9.08426116552619E-08  9.54046266149910E+00
 cg2d: Sum(rhs),rhsMax =  -9.08497668206110E-08  9.53965734943055E+00
 cg2d: Sum(rhs),rhsMax =  -9.08576467395505E-08  9.53880424419014E+00
 cg2d: Sum(rhs),rhsMax =  -9.08659032461401E-08  9.53790282192021E+00
 cg2d: Sum(rhs),rhsMax =  -9.08746713434994E-08  9.53695268180845E+00
 cg2d: Sum(rhs),rhsMax =  -9.08840078750472E-08  9.53595362230667E+00
 cg2d: Sum(rhs),rhsMax =  -9.08936215182621E-08  9.53490571447803E+00
 cg2d: Sum(rhs),rhsMax =  -9.09042654484438E-08  9.53380930168364E+00
 cg2d: Sum(rhs),rhsMax =  -9.09145470018302E-08  9.53266493640869E+00
 cg2d: Sum(rhs),rhsMax =  -9.09259227910297E-08  9.53147332889492E+00
 cg2d: Sum(rhs),rhsMax =  -9.09384141323244E-08  9.53023537646442E+00
 cg2d: Sum(rhs),rhsMax =  -9.09505217805417E-08  9.52895220993865E+00
 cg2d: Sum(rhs),rhsMax =  -9.09629278567081E-08  9.52762520262973E+00
 cg2d: Sum(rhs),rhsMax =  -9.09757815747980E-08  9.52625594300855E+00
 cg2d: Sum(rhs),rhsMax =  -9.09892747813501E-08  9.52484621149773E+00
 cg2d: Sum(rhs),rhsMax =  -9.10029882561503E-08  9.52339794221070E+00
 EXTERNAL_FIELDS_LOAD, it=   3600270 : Reading new data, i0,i1=    5    6 (prev=    4    5 )
 DIC_FIELDS_LOAD, it=   3600270 : Reading new data, i0,i1=    5    6 (prev=    4    5 )
 cg2d: Sum(rhs),rhsMax =  -9.10169930534721E-08  9.52191318167782E+00
 cg2d: Sum(rhs),rhsMax =  -9.10311257484864E-08  9.52041761022813E+00
 cg2d: Sum(rhs),rhsMax =  -9.10455213443129E-08  9.51892843351038E+00
 cg2d: Sum(rhs),rhsMax =  -9.10593485059508E-08  9.51746258399289E+00
 cg2d: Sum(rhs),rhsMax =  -9.10729625047679E-08  9.51603636817957E+00
 cg2d: Sum(rhs),rhsMax =  -9.10860507019606E-08  9.51466517931999E+00
 cg2d: Sum(rhs),rhsMax =  -9.10986344138109E-08  9.51336322967766E+00
 cg2d: Sum(rhs),rhsMax =  -9.11102233658312E-08  9.51214329321166E+00
 cg2d: Sum(rhs),rhsMax =  -9.11212367782355E-08  9.51101645114812E+00
 cg2d: Sum(rhs),rhsMax =  -9.11308219997409E-08  9.50999185515969E+00
(PID.TID 0000.0001) whio : write lev 2 rec   1
 cg2d: Sum(rhs),rhsMax =  -7.46576347410155E-08  9.50907671569018E+00
 cg2d: Sum(rhs),rhsMax =  -7.46636956705515E-08  9.50827538007810E+00
 cg2d: Sum(rhs),rhsMax =  -7.46696002806857E-08  9.50759038673436E+00
 cg2d: Sum(rhs),rhsMax =  -7.46738635371003E-08  9.50702164848735E+00
 cg2d: Sum(rhs),rhsMax =  -7.46774944104800E-08  9.50656668487862E+00
 cg2d: Sum(rhs),rhsMax =  -7.46800878914655E-08  9.50622069715104E+00
 cg2d: Sum(rhs),rhsMax =  -7.46821626762539E-08  9.50597670066013E+00
 cg2d: Sum(rhs),rhsMax =  -7.46832924392038E-08  9.50582571630982E+00
 cg2d: Sum(rhs),rhsMax =  -7.46840456145037E-08  9.50575700943737E+00
 cg2d: Sum(rhs),rhsMax =  -7.46835624454434E-08  9.50575837107225E+00
(PID.TID 0000.0001) whio : write lev 2 rec   2
 cg2d: Sum(rhs),rhsMax =  -7.46833208609132E-08  9.50581645922263E+00
 cg2d: Sum(rhs),rhsMax =  -7.46821982033907E-08  9.50591711991761E+00
 cg2d: Sum(rhs),rhsMax =  -7.46813526575352E-08  9.50604571310823E+00
 cg2d: Sum(rhs),rhsMax =  -7.46798960449269E-08  9.50618745972881E+00
 cg2d: Sum(rhs),rhsMax =  -7.46791073424902E-08  9.50632780119137E+00
 cg2d: Sum(rhs),rhsMax =  -7.46779846849677E-08  9.50645275158785E+00
 cg2d: Sum(rhs),rhsMax =  -7.46776720461639E-08  9.50654922994562E+00
 cg2d: Sum(rhs),rhsMax =  -7.46771249282574E-08  9.50660536798306E+00
 cg2d: Sum(rhs),rhsMax =  -7.46771320336848E-08  9.50661078108177E+00
 cg2d: Sum(rhs),rhsMax =  -7.46778141547111E-08  9.50655679154863E+00
(PID.TID 0000.0001) whio : write lev 2 rec   3
 cg2d: Sum(rhs),rhsMax =  -7.46784394323186E-08  9.50643658250018E+00
 cg2d: Sum(rhs),rhsMax =  -7.46802726325768E-08  9.50624530490270E+00
 cg2d: Sum(rhs),rhsMax =  -7.46821271491172E-08  9.50598009866199E+00
 cg2d: Sum(rhs),rhsMax =  -7.46850545851885E-08  9.50564005870858E+00
 cg2d: Sum(rhs),rhsMax =  -7.46883372926277E-08  9.50522619443621E+00
 cg2d: Sum(rhs),rhsMax =  -7.46918829008791E-08  9.50474133855045E+00
 cg2d: Sum(rhs),rhsMax =  -7.46962030007126E-08  9.50418990415982E+00
 cg2d: Sum(rhs),rhsMax =  -7.47013260138374E-08  9.50357767429962E+00
 cg2d: Sum(rhs),rhsMax =  -7.47062216532868E-08  9.50291163791579E+00
 cg2d: Sum(rhs),rhsMax =  -7.47126236433360E-08  9.50219980056318E+00
(PID.TID 0000.0001) whio : write lev 2 rec   4
 cg2d: Sum(rhs),rhsMax =  -7.47184074612051E-08  9.50145094748729E+00
 cg2d: Sum(rhs),rhsMax =  -7.47247455024080E-08  9.50067438045622E+00
 cg2d: Sum(rhs),rhsMax =  -7.47313322335685E-08  9.49987965703835E+00
 cg2d: Sum(rhs),rhsMax =  -7.47377768561819E-08  9.49907634096511E+00
 cg2d: Sum(rhs),rhsMax =  -7.47441433190943E-08  9.49827377465974E+00
 cg2d: Sum(rhs),rhsMax =  -7.47505310982888E-08  9.49748086980356E+00
 cg2d: Sum(rhs),rhsMax =  -7.47569046666285E-08  9.49670591827534E+00
 cg2d: Sum(rhs),rhsMax =  -7.47627666441986E-08  9.49595642566026E+00
 cg2d: Sum(rhs),rhsMax =  -7.47686570434780E-08  9.49523896197083E+00
 cg2d: Sum(rhs),rhsMax =  -7.47742205930990E-08  9.49455904201468E+00
(PID.TID 0000.0001) whio : write lev 2 rec   5
 cg2d: Sum(rhs),rhsMax =  -7.47793578170786E-08  9.49392104808525E+00
 cg2d: Sum(rhs),rhsMax =  -7.47843102999468E-08  9.49332815058320E+00
 cg2d: Sum(rhs),rhsMax =  -7.47889217223019E-08  9.49278226320107E+00
 cg2d: Sum(rhs),rhsMax =  -7.47930855027334E-08  9.49228403703651E+00
 cg2d: Sum(rhs),rhsMax =  -7.47963611047453E-08  9.49183288684206E+00
 cg2d: Sum(rhs),rhsMax =  -7.48000417161165E-08  9.49142705076112E+00
 cg2d: Sum(rhs),rhsMax =  -7.48029052033417E-08  9.49106366991647E+00
 cg2d: Sum(rhs),rhsMax =  -7.48058113231309E-08  9.49073888097194E+00
 cg2d: Sum(rhs),rhsMax =  -7.48079642676203E-08  9.49044792286002E+00
 cg2d: Sum(rhs),rhsMax =  -7.48104369563407E-08  9.49018527463466E+00
(PID.TID 0000.0001) whio : write lev 2 rec   6
 EXTERNAL_FIELDS_LOAD, it=   3600330 : Reading new data, i0,i1=    6    7 (prev=    5    6 )
 DIC_FIELDS_LOAD, it=   3600330 : Reading new data, i0,i1=    6    7 (prev=    5    6 )
 cg2d: Sum(rhs),rhsMax =  -7.48125685845480E-08  9.48994481428126E+00
 cg2d: Sum(rhs),rhsMax =  -7.48145367879260E-08  9.48970977028949E+00
 cg2d: Sum(rhs),rhsMax =  -7.48167536812616E-08  9.48946667050908E+00
 cg2d: Sum(rhs),rhsMax =  -7.48186579357935E-08  9.48920195983684E+00
 cg2d: Sum(rhs),rhsMax =  -7.48212727330611E-08  9.48890231838115E+00
 cg2d: Sum(rhs),rhsMax =  -7.48240864822947E-08  9.48855490239494E+00
 cg2d: Sum(rhs),rhsMax =  -7.48277528828112E-08  9.48814760448955E+00
 cg2d: Sum(rhs),rhsMax =  -7.48317106058494E-08  9.48766929469714E+00
 cg2d: Sum(rhs),rhsMax =  -7.48361301816658E-08  9.48711003726197E+00
 cg2d: Sum(rhs),rhsMax =  -7.48412745110727E-08  9.48646127184076E+00
(PID.TID 0000.0001) whio : write lev 2 rec   7
 cg2d: Sum(rhs),rhsMax =  -7.48473496514634E-08  9.48571598443359E+00
 cg2d: Sum(rhs),rhsMax =  -7.48540713857437E-08  9.48486884714226E+00
 cg2d: Sum(rhs),rhsMax =  -7.48618091961362E-08  9.48391631089758E+00
 cg2d: Sum(rhs),rhsMax =  -7.48703143926832E-08  9.48285664384895E+00
 cg2d: Sum(rhs),rhsMax =  -7.48790469629057E-08  9.48168991622247E+00
 cg2d: Sum(rhs),rhsMax =  -7.48895487845402E-08  9.48041794354397E+00
 cg2d: Sum(rhs),rhsMax =  -7.49003561395511E-08  9.47904418707887E+00
 cg2d: Sum(rhs),rhsMax =  -7.49121227272553E-08  9.47757361133926E+00
 cg2d: Sum(rhs),rhsMax =  -7.49249196019264E-08  9.47601250495736E+00
 cg2d: Sum(rhs),rhsMax =  -7.49377875308710E-08  9.47436827146146E+00
(PID.TID 0000.0001) whio : write lev 2 rec   8
 cg2d: Sum(rhs),rhsMax =  -7.49514157405429E-08  9.47264919973884E+00
 cg2d: Sum(rhs),rhsMax =  -7.49656123844034E-08  9.47086422427234E+00
 cg2d: Sum(rhs),rhsMax =  -7.49802140376232E-08  9.46902267691356E+00
 cg2d: Sum(rhs),rhsMax =  -7.49953059653308E-08  9.46713403481286E+00
 cg2d: Sum(rhs),rhsMax =  -7.50105257907308E-08  9.46520767024855E+00
 cg2d: Sum(rhs),rhsMax =  -7.50263424720288E-08  9.46325259778073E+00
 cg2d: Sum(rhs),rhsMax =  -7.50422373130277E-08  9.46127726524814E+00
 cg2d: Sum(rhs),rhsMax =  -7.50577768826588E-08  9.45928937477588E+00
 cg2d: Sum(rhs),rhsMax =  -7.50738990973332E-08  9.45729571583441E+00
 cg2d: Sum(rhs),rhsMax =  -7.50896163026482E-08  9.45530206338839E+00
(PID.TID 0000.0001) whio : write lev 2 rec   9
 cg2d: Sum(rhs),rhsMax =  -7.51056461467670E-08  9.45331309804778E+00
 cg2d: Sum(rhs),rhsMax =  -7.51212709815263E-08  9.45133234916556E+00
 cg2d: Sum(rhs),rhsMax =  -7.51373789853460E-08  9.44936217148271E+00
 cg2d: Sum(rhs),rhsMax =  -7.51527906572846E-08  9.44740375781686E+00
 cg2d: Sum(rhs),rhsMax =  -7.51685931277279E-08  9.44545718748645E+00
 cg2d: Sum(rhs),rhsMax =  -7.51841966462052E-08  9.44352151007986E+00
 cg2d: Sum(rhs),rhsMax =  -7.51994591041694E-08  9.44159486329961E+00
 cg2d: Sum(rhs),rhsMax =  -7.52147784055524E-08  9.43967460290015E+00
 cg2d: Sum(rhs),rhsMax =  -7.52305737705683E-08  9.43775744343237E+00
 cg2d: Sum(rhs),rhsMax =  -7.52457793851136E-08  9.43583960877673E+00
(PID.TID 0000.0001) whio : write lev 2 rec  10
 cg2d: Sum(rhs),rhsMax =  -7.52614752741465E-08  9.43391698185443E+00
 cg2d: Sum(rhs),rhsMax =  -7.52768585243757E-08  9.43198524752366E+00
 cg2d: Sum(rhs),rhsMax =  -7.52925899405454E-08  9.43004003060471E+00
 cg2d: Sum(rhs),rhsMax =  -7.53084705706897E-08  9.42807701983885E+00
 cg2d: Sum(rhs),rhsMax =  -7.53246993667744E-08  9.42609207475689E+00
 cg2d: Sum(rhs),rhsMax =  -7.53408997411498E-08  9.42408132282525E+00
 cg2d: Sum(rhs),rhsMax =  -7.53572138023628E-08  9.42204124662806E+00
 cg2d: Sum(rhs),rhsMax =  -7.53741673520381E-08  9.41996876781019E+00
 cg2d: Sum(rhs),rhsMax =  -7.53910782691491E-08  9.41786131641806E+00
 cg2d: Sum(rhs),rhsMax =  -7.54086713072866E-08  9.41571688244791E+00
(PID.TID 0000.0001) whio : write lev 2 rec  11
 cg2d: Sum(rhs),rhsMax =  -7.54266125113645E-08  9.41353407021840E+00
 cg2d: Sum(rhs),rhsMax =  -7.54444755557415E-08  9.41131216516102E+00
 cg2d: Sum(rhs),rhsMax =  -7.54630704591364E-08  9.40905115996980E+00
 cg2d: Sum(rhs),rhsMax =  -7.54816795733859E-08  9.40675174533744E+00
 cg2d: Sum(rhs),rhsMax =  -7.55005373775930E-08  9.40441527809810E+00
 cg2d: Sum(rhs),rhsMax =  -7.55200275648349E-08  9.40204373790542E+00
 cg2d: Sum(rhs),rhsMax =  -7.55398446017352E-08  9.39963967991296E+00
 cg2d: Sum(rhs),rhsMax =  -7.55594129486781E-08  9.39720618276624E+00
 cg2d: Sum(rhs),rhsMax =  -7.55797202600661E-08  9.39474678273504E+00
 cg2d: Sum(rhs),rhsMax =  -7.56002052071381E-08  9.39226540565015E+00
(PID.TID 0000.0001) whio : write lev 2 rec  12
 EXTERNAL_FIELDS_LOAD, it=   3600390 : Reading new data, i0,i1=    7    8 (prev=    6    7 )
 DIC_FIELDS_LOAD, it=   3600390 : Reading new data, i0,i1=    7    8 (prev=    6    7 )
 cg2d: Sum(rhs),rhsMax =  -7.56204627805346E-08  9.38976628030644E+00
 cg2d: Sum(rhs),rhsMax =  -7.56415232672225E-08  9.38724775533259E+00
 cg2d: Sum(rhs),rhsMax =  -7.56618732111747E-08  9.38470942901966E+00
 cg2d: Sum(rhs),rhsMax =  -7.56830758064098E-08  9.38215030318780E+00
 cg2d: Sum(rhs),rhsMax =  -7.57043636667731E-08  9.37956883924381E+00
 cg2d: Sum(rhs),rhsMax =  -7.57257581085469E-08  9.37696305631202E+00
 cg2d: Sum(rhs),rhsMax =  -7.57472449208763E-08  9.37433065622099E+00
 cg2d: Sum(rhs),rhsMax =  -7.57689306851717E-08  9.37166915330181E+00
 cg2d: Sum(rhs),rhsMax =  -7.57913838356217E-08  9.36897600473142E+00
 cg2d: Sum(rhs),rhsMax =  -7.58139293566273E-08  9.36624871729081E+00
(PID.TID 0000.0001) whio : write lev 2 rec  13
 cg2d: Sum(rhs),rhsMax =  -7.58368727815650E-08  9.36348495363947E+00
 cg2d: Sum(rhs),rhsMax =  -7.58596883088103E-08  9.36068261643794E+00
 cg2d: Sum(rhs),rhsMax =  -7.58831930625092E-08  9.35783991548456E+00
 cg2d: Sum(rhs),rhsMax =  -7.59071596689864E-08  9.35495541522523E+00
 cg2d: Sum(rhs),rhsMax =  -7.59316307608060E-08  9.35202806312956E+00
 cg2d: Sum(rhs),rhsMax =  -7.59561444851897E-08  9.34905718311665E+00
 cg2d: Sum(rhs),rhsMax =  -7.59807505801291E-08  9.34604244734688E+00
 cg2d: Sum(rhs),rhsMax =  -7.60062519589155E-08  9.34298385173757E+00
 cg2d: Sum(rhs),rhsMax =  -7.60316041237274E-08  9.33988171405705E+00
 cg2d: Sum(rhs),rhsMax =  -7.60576810421298E-08  9.33673667089172E+00
(PID.TID 0000.0001) whio : write lev 2 rec  14
 cg2d: Sum(rhs),rhsMax =  -7.60842198133105E-08  9.33354966433849E+00
 cg2d: Sum(rhs),rhsMax =  -7.61109362201751E-08  9.33032189428481E+00
 cg2d: Sum(rhs),rhsMax =  -7.61379794766981E-08  9.32705473610878E+00
 cg2d: Sum(rhs),rhsMax =  -7.61650014169390E-08  9.32374964223594E+00
 cg2d: Sum(rhs),rhsMax =  -7.61924070502573E-08  9.32040805771324E+00
 cg2d: Sum(rhs),rhsMax =  -7.62202390092170E-08  9.31703133797851E+00
 cg2d: Sum(rhs),rhsMax =  -7.62486536132201E-08  9.31362068532222E+00
 cg2d: Sum(rhs),rhsMax =  -7.62769758466675E-08  9.31017709807696E+00
 cg2d: Sum(rhs),rhsMax =  -7.63053833452432E-08  9.30670132260387E+00
 cg2d: Sum(rhs),rhsMax =  -7.63343095400160E-08  9.30319380786966E+00
(PID.TID 0000.0001) whio : write lev 2 rec  15
 cg2d: Sum(rhs),rhsMax =  -7.63631078370963E-08  9.29965466644313E+00
 cg2d: Sum(rhs),rhsMax =  -7.63924603575106E-08  9.29608366095666E+00
 cg2d: Sum(rhs),rhsMax =  -7.64222036764295E-08  9.29248016366683E+00
 cg2d: Sum(rhs),rhsMax =  -7.64520393659041E-08  9.28884314276847E+00
 cg2d: Sum(rhs),rhsMax =  -7.64822445376012E-08  9.28517117681256E+00
 cg2d: Sum(rhs),rhsMax =  -7.65125633961361E-08  9.28146248933914E+00
 cg2d: Sum(rhs),rhsMax =  -7.65432446314662E-08  9.27771499430064E+00
 cg2d: Sum(rhs),rhsMax =  -7.65746861475236E-08  9.27392634829171E+00
 cg2d: Sum(rhs),rhsMax =  -7.66061276635810E-08  9.27009401586145E+00
 cg2d: Sum(rhs),rhsMax =  -7.66378391858780E-08  9.26621534803516E+00
(PID.TID 0000.0001) whio : write lev 2 rec  16
 cg2d: Sum(rhs),rhsMax =  -7.66705383625776E-08  9.26228766593419E+00
 cg2d: Sum(rhs),rhsMax =  -7.67030741144481E-08  9.25830830078040E+00
 cg2d: Sum(rhs),rhsMax =  -7.67362919873449E-08  9.25427464244149E+00
 cg2d: Sum(rhs),rhsMax =  -7.67699646075926E-08  9.25018420208542E+00
 cg2d: Sum(rhs),rhsMax =  -7.68039853937807E-08  9.24603467114681E+00
 cg2d: Sum(rhs),rhsMax =  -7.68388872529613E-08  9.24182397900772E+00
 cg2d: Sum(rhs),rhsMax =  -7.68742154377833E-08  9.23755034859452E+00
 cg2d: Sum(rhs),rhsMax =  -7.69100552133750E-08  9.23321234366443E+00
 cg2d: Sum(rhs),rhsMax =  -7.69468400108053E-08  9.22880889968266E+00
 cg2d: Sum(rhs),rhsMax =  -7.69835182268253E-08  9.22433933197490E+00
(PID.TID 0000.0001) whio : write lev 2 rec  17
 cg2d: Sum(rhs),rhsMax =  -7.70209354072904E-08  9.21980332836426E+00
 cg2d: Sum(rhs),rhsMax =  -7.70591341847648E-08  9.21520093492414E+00
 cg2d: Sum(rhs),rhsMax =  -7.70982282460864E-08  9.21053254057723E+00
 cg2d: Sum(rhs),rhsMax =  -7.71375923136475E-08  9.20579886154174E+00
 cg2d: Sum(rhs),rhsMax =  -7.71773187580038E-08  9.20100092277316E+00
 cg2d: Sum(rhs),rhsMax =  -7.72178623265063E-08  9.19614003508373E+00
 cg2d: Sum(rhs),rhsMax =  -7.72588606423597E-08  9.19121776376076E+00
 cg2d: Sum(rhs),rhsMax =  -7.73005126575299E-08  9.18623589368687E+00
 cg2d: Sum(rhs),rhsMax =  -7.73430812728293E-08  9.18119640414723E+00
 cg2d: Sum(rhs),rhsMax =  -7.73854154090259E-08  9.17610144209478E+00
(PID.TID 0000.0001) whio : write lev 2 rec  18
 EXTERNAL_FIELDS_LOAD, it=   3600450 : Reading new data, i0,i1=    8    9 (prev=    7    8 )
 DIC_FIELDS_LOAD, it=   3600450 : Reading new data, i0,i1=    8    9 (prev=    7    8 )
 cg2d: Sum(rhs),rhsMax =  -7.74284956150950E-08  9.17095326904567E+00
 cg2d: Sum(rhs),rhsMax =  -7.74719595142415E-08  9.16576412699309E+00
 cg2d: Sum(rhs),rhsMax =  -7.75162902755255E-08  9.16054233368469E+00
 cg2d: Sum(rhs),rhsMax =  -7.75600952351851E-08  9.15529583959941E+00
 cg2d: Sum(rhs),rhsMax =  -7.76045467887343E-08  9.15003201693785E+00
 cg2d: Sum(rhs),rhsMax =  -7.76489557097193E-08  9.14475750599293E+00
 cg2d: Sum(rhs),rhsMax =  -7.76937127966448E-08  9.13947810620331E+00
 cg2d: Sum(rhs),rhsMax =  -7.77385196215619E-08  9.13419871539155E+00
 cg2d: Sum(rhs),rhsMax =  -7.77830635456667E-08  9.12892331307296E+00
 cg2d: Sum(rhs),rhsMax =  -7.78277424728913E-08  9.12365496001899E+00
(PID.TID 0000.0001) whio : write lev 2 rec  19
 cg2d: Sum(rhs),rhsMax =  -7.78721371830216E-08  9.11839580250666E+00
 cg2d: Sum(rhs),rhsMax =  -7.79170150622122E-08  9.11314707861780E+00
 cg2d: Sum(rhs),rhsMax =  -7.79618360979839E-08  9.10790912686148E+00
 cg2d: Sum(rhs),rhsMax =  -7.80063302840972E-08  9.10268140327570E+00
 cg2d: Sum(rhs),rhsMax =  -7.80512792175614E-08  9.09746251290633E+00
 cg2d: Sum(rhs),rhsMax =  -7.80961926238888E-08  9.09225025831423E+00
 cg2d: Sum(rhs),rhsMax =  -7.81409141836775E-08  9.08704170372423E+00
 cg2d: Sum(rhs),rhsMax =  -7.81859057497059E-08  9.08183325412304E+00
 cg2d: Sum(rhs),rhsMax =  -7.82307836288965E-08  9.07662074967284E+00
 cg2d: Sum(rhs),rhsMax =  -7.82759315143267E-08  9.07139957792224E+00
(PID.TID 0000.0001) whio : write lev 2 rec  20
 cg2d: Sum(rhs),rhsMax =  -7.83211078214663E-08  9.06616480379289E+00
 cg2d: Sum(rhs),rhsMax =  -7.83665612402729E-08  9.06091131197731E+00
 cg2d: Sum(rhs),rhsMax =  -7.84124978281397E-08  9.05563395765243E+00
 cg2d: Sum(rhs),rhsMax =  -7.84584273105793E-08  9.05032772066772E+00
 cg2d: Sum(rhs),rhsMax =  -7.85049394380621E-08  9.04498784959721E+00
 cg2d: Sum(rhs),rhsMax =  -7.85514657763997E-08  9.03960999802522E+00
 cg2d: Sum(rhs),rhsMax =  -7.85986244977721E-08  9.03419034933061E+00
 cg2d: Sum(rhs),rhsMax =  -7.86464653401708E-08  9.02872572370695E+00
 cg2d: Sum(rhs),rhsMax =  -7.86944696073988E-08  9.02321366240276E+00
 cg2d: Sum(rhs),rhsMax =  -7.87431417847984E-08  9.01765248043218E+00
(PID.TID 0000.0001) whio : write lev 2 rec  21
 cg2d: Sum(rhs),rhsMax =  -7.87920484413007E-08  9.01204128366352E+00
 cg2d: Sum(rhs),rhsMax =  -7.88417082731030E-08  9.00637994805543E+00
 cg2d: Sum(rhs),rhsMax =  -7.88920360150769E-08  9.00066907167982E+00
 cg2d: Sum(rhs),rhsMax =  -7.89423353353413E-08  8.99490990653884E+00
 cg2d: Sum(rhs),rhsMax =  -7.89935867828717E-08  8.98910428085158E+00
 cg2d: Sum(rhs),rhsMax =  -7.90451721854879E-08  8.98325450032841E+00
 cg2d: Sum(rhs),rhsMax =  -7.90971625974635E-08  8.97736324616216E+00
 cg2d: Sum(rhs),rhsMax =  -7.91497498653371E-08  8.97143347490525E+00
 cg2d: Sum(rhs),rhsMax =  -7.92022945006465E-08  8.96546832283943E+00
 cg2d: Sum(rhs),rhsMax =  -7.92553649375805E-08  8.95947101876645E+00
(PID.TID 0000.0001) whio : write lev 2 rec  22
 cg2d: Sum(rhs),rhsMax =  -7.93088545947285E-08  8.95344480865740E+00
 cg2d: Sum(rhs),rhsMax =  -7.93626284689708E-08  8.94739288844395E+00
 cg2d: Sum(rhs),rhsMax =  -7.94164307649226E-08  8.94131834581199E+00
 cg2d: Sum(rhs),rhsMax =  -7.94707304407893E-08  8.93522409346950E+00
 cg2d: Sum(rhs),rhsMax =  -7.95254209151608E-08  8.92911278517729E+00
 cg2d: Sum(rhs),rhsMax =  -7.95802961306435E-08  8.92298675820892E+00
 cg2d: Sum(rhs),rhsMax =  -7.96350860809980E-08  8.91684802723521E+00
 cg2d: Sum(rhs),rhsMax =  -7.96901744593015E-08  8.91069816303900E+00
 cg2d: Sum(rhs),rhsMax =  -7.97458028500841E-08  8.90453822689960E+00
 cg2d: Sum(rhs),rhsMax =  -7.98008059632593E-08  8.89836886679347E+00
(PID.TID 0000.0001) whio : write lev 2 rec  23
 cg2d: Sum(rhs),rhsMax =  -7.98565338300250E-08  8.89219046877893E+00
 cg2d: Sum(rhs),rhsMax =  -7.99122830130727E-08  8.88600325900496E+00
 cg2d: Sum(rhs),rhsMax =  -7.99680890395393E-08  8.87980729026012E+00
 cg2d: Sum(rhs),rhsMax =  -8.00242716536559E-08  8.87360238895611E+00
 cg2d: Sum(rhs),rhsMax =  -8.00806461143111E-08  8.86738778998965E+00
 cg2d: Sum(rhs),rhsMax =  -8.01370845238125E-08  8.86116239780069E+00
 cg2d: Sum(rhs),rhsMax =  -8.01937503069894E-08  8.85492496573172E+00
 cg2d: Sum(rhs),rhsMax =  -8.02502100327729E-08  8.84867413251653E+00
 cg2d: Sum(rhs),rhsMax =  -8.03073376687280E-08  8.84240642216679E+00
 cg2d: Sum(rhs),rhsMax =  -8.03649982117349E-08  8.83611901543530E+00
(PID.TID 0000.0001) whio : write lev 2 rec  24
 EXTERNAL_FIELDS_LOAD, it=   3600510 : Reading new data, i0,i1=    9   10 (prev=    8    9 )
 DIC_FIELDS_LOAD, it=   3600510 : Reading new data, i0,i1=    9   10 (prev=    8    9 )
 cg2d: Sum(rhs),rhsMax =  -8.04221684802542E-08  8.82980958620308E+00
 cg2d: Sum(rhs),rhsMax =  -8.04801842946290E-08  8.82347769783998E+00
 cg2d: Sum(rhs),rhsMax =  -8.05382569524227E-08  8.81712292682944E+00
 cg2d: Sum(rhs),rhsMax =  -8.05969335715417E-08  8.81074530255714E+00
 cg2d: Sum(rhs),rhsMax =  -8.06557167720712E-08  8.80434529484773E+00
 cg2d: Sum(rhs),rhsMax =  -8.07150399850798E-08  8.79792386244349E+00
 cg2d: Sum(rhs),rhsMax =  -8.07739795050111E-08  8.79148242611313E+00
 cg2d: Sum(rhs),rhsMax =  -8.08336650948149E-08  8.78502288414319E+00
 cg2d: Sum(rhs),rhsMax =  -8.08934359497471E-08  8.77854755016569E+00
 cg2d: Sum(rhs),rhsMax =  -8.09533489132264E-08  8.77205911369779E+00
(PID.TID 0000.0001) whio : write lev 2 rec  25
 cg2d: Sum(rhs),rhsMax =  -8.10136953077745E-08  8.76556055620398E+00
 cg2d: Sum(rhs),rhsMax =  -8.10739990697584E-08  8.75905508378914E+00
 cg2d: Sum(rhs),rhsMax =  -8.11343383588792E-08  8.75254603920936E+00
 cg2d: Sum(rhs),rhsMax =  -8.11948908108207E-08  8.74603681041557E+00
 cg2d: Sum(rhs),rhsMax =  -8.12557274798564E-08  8.73953075362701E+00
 cg2d: Sum(rhs),rhsMax =  -8.13160028201310E-08  8.73303114921060E+00
 cg2d: Sum(rhs),rhsMax =  -8.13765623774998E-08  8.72654114513270E+00
 cg2d: Sum(rhs),rhsMax =  -8.14376406310657E-08  8.72006369581994E+00
 cg2d: Sum(rhs),rhsMax =  -8.14983778241185E-08  8.71360148708201E+00
 cg2d: Sum(rhs),rhsMax =  -8.15589231706326E-08  8.70715691042129E+00
(PID.TID 0000.0001) whio : write lev 2 rec  26
 cg2d: Sum(rhs),rhsMax =  -8.16189995589411E-08  8.70073208392416E+00
 cg2d: Sum(rhs),rhsMax =  -8.16794241131902E-08  8.69432884794314E+00
 cg2d: Sum(rhs),rhsMax =  -8.17399907759864E-08  8.68794879382850E+00
 cg2d: Sum(rhs),rhsMax =  -8.17998682123289E-08  8.68159798467576E+00
 cg2d: Sum(rhs),rhsMax =  -8.18599232843553E-08  8.67528128146757E+00
 cg2d: Sum(rhs),rhsMax =  -8.19197296664242E-08  8.66900202377271E+00
 cg2d: Sum(rhs),rhsMax =  -8.19787686623386E-08  8.66276246601009E+00
 cg2d: Sum(rhs),rhsMax =  -8.20377223931246E-08  8.65656395618254E+00
 cg2d: Sum(rhs),rhsMax =  -8.20966974401927E-08  8.65040695084001E+00
 cg2d: Sum(rhs),rhsMax =  -8.21545782514477E-08  8.64429120753706E+00
(PID.TID 0000.0001) whio : write lev 2 rec  27
 cg2d: Sum(rhs),rhsMax =  -8.22127219635149E-08  8.63821394130229E+00
 cg2d: Sum(rhs),rhsMax =  -8.22708088321633E-08  8.63217228139934E+00
 cg2d: Sum(rhs),rhsMax =  -8.23281567363665E-08  8.62616282396185E+00
 cg2d: Sum(rhs),rhsMax =  -8.23857178033904E-08  8.62018163636291E+00
 cg2d: Sum(rhs),rhsMax =  -8.24428312284908E-08  8.61422433474279E+00
 cg2d: Sum(rhs),rhsMax =  -8.25005628257713E-08  8.60828614974574E+00
 cg2d: Sum(rhs),rhsMax =  -8.25572783469397E-08  8.60236210888393E+00
 cg2d: Sum(rhs),rhsMax =  -8.26141359766552E-08  8.59644722891299E+00
 cg2d: Sum(rhs),rhsMax =  -8.26714909862858E-08  8.59053676605781E+00
 cg2d: Sum(rhs),rhsMax =  -8.27286612548050E-08  8.58462635148552E+00
(PID.TID 0000.0001) whio : write lev 2 rec  28
 cg2d: Sum(rhs),rhsMax =  -8.27861015295639E-08  8.57871219654084E+00
 cg2d: Sum(rhs),rhsMax =  -8.28435489097501E-08  8.57279118473105E+00
 cg2d: Sum(rhs),rhsMax =  -8.29014012992957E-08  8.56686082650802E+00
 cg2d: Sum(rhs),rhsMax =  -8.29591471074309E-08  8.56091927440413E+00
 cg2d: Sum(rhs),rhsMax =  -8.30173405574897E-08  8.55496535968157E+00
 cg2d: Sum(rhs),rhsMax =  -8.30755197966937E-08  8.54899846655373E+00
 cg2d: Sum(rhs),rhsMax =  -8.31339050932911E-08  8.54301850429492E+00
 cg2d: Sum(rhs),rhsMax =  -8.31929156674960E-08  8.53702581146013E+00
 cg2d: Sum(rhs),rhsMax =  -8.32513507020849E-08  8.53102112510287E+00
 cg2d: Sum(rhs),rhsMax =  -8.33108231290680E-08  8.52500561565683E+00
 cg2d: Sum(rhs),rhsMax =  -7.46576347410155E-08  9.50907671569018E+00
 cg2d: Sum(rhs),rhsMax =  -7.46636956705515E-08  9.50827538007810E+00
 cg2d: Sum(rhs),rhsMax =  -7.46696002806857E-08  9.50759038673436E+00
 cg2d: Sum(rhs),rhsMax =  -7.46738635371003E-08  9.50702164848735E+00
 cg2d: Sum(rhs),rhsMax =  -7.46774944104800E-08  9.50656668487862E+00
 cg2d: Sum(rhs),rhsMax =  -7.46800878914655E-08  9.50622069715104E+00
 cg2d: Sum(rhs),rhsMax =  -7.46821626762539E-08  9.50597670066013E+00
 cg2d: Sum(rhs),rhsMax =  -7.46832924392038E-08  9.50582571630982E+00
 cg2d: Sum(rhs),rhsMax =  -7.46840456145037E-08  9.50575700943737E+00
 cg2d: Sum(rhs),rhsMax =  -7.46835624454434E-08  9.50575837107225E+00
 cg2d: Sum(rhs),rhsMax =  -7.46833208609132E-08  9.50581645922263E+00
 cg2d: Sum(rhs),rhsMax =  -7.46821982033907E-08  9.50591711991761E+00
 cg2d: Sum(rhs),rhsMax =  -7.46813526575352E-08  9.50604571310823E+00
 cg2d: Sum(rhs),rhsMax =  -7.46798960449269E-08  9.50618745972881E+00
 cg2d: Sum(rhs),rhsMax =  -7.46791073424902E-08  9.50632780119137E+00
 cg2d: Sum(rhs),rhsMax =  -7.46779846849677E-08  9.50645275158785E+00
 cg2d: Sum(rhs),rhsMax =  -7.46776720461639E-08  9.50654922994562E+00
 cg2d: Sum(rhs),rhsMax =  -7.46771249282574E-08  9.50660536798306E+00
 cg2d: Sum(rhs),rhsMax =  -7.46771320336848E-08  9.50661078108177E+00
 cg2d: Sum(rhs),rhsMax =  -7.46778141547111E-08  9.50655679154863E+00
 cg2d: Sum(rhs),rhsMax =  -7.46784394323186E-08  9.50643658250018E+00
 cg2d: Sum(rhs),rhsMax =  -7.46802726325768E-08  9.50624530490270E+00
 cg2d: Sum(rhs),rhsMax =  -7.46821271491172E-08  9.50598009866199E+00
 cg2d: Sum(rhs),rhsMax =  -7.46850545851885E-08  9.50564005870858E+00
 cg2d: Sum(rhs),rhsMax =  -7.46883372926277E-08  9.50522619443621E+00
 cg2d: Sum(rhs),rhsMax =  -7.46918829008791E-08  9.50474133855045E+00
 cg2d: Sum(rhs),rhsMax =  -7.46962030007126E-08  9.50418990415982E+00
 cg2d: Sum(rhs),rhsMax =  -7.47013260138374E-08  9.50357767429962E+00
 cg2d: Sum(rhs),rhsMax =  -7.47062216532868E-08  9.50291163791579E+00
 cg2d: Sum(rhs),rhsMax =  -7.47126236433360E-08  9.50219980056318E+00
 cg2d: Sum(rhs),rhsMax =  -7.47184074612051E-08  9.50145094748729E+00
 cg2d: Sum(rhs),rhsMax =  -7.47247455024080E-08  9.50067438045622E+00
 cg2d: Sum(rhs),rhsMax =  -7.47313322335685E-08  9.49987965703835E+00
 cg2d: Sum(rhs),rhsMax =  -7.47377768561819E-08  9.49907634096511E+00
 cg2d: Sum(rhs),rhsMax =  -7.47441433190943E-08  9.49827377465974E+00
 cg2d: Sum(rhs),rhsMax =  -7.47505310982888E-08  9.49748086980356E+00
 cg2d: Sum(rhs),rhsMax =  -7.47569046666285E-08  9.49670591827534E+00
 cg2d: Sum(rhs),rhsMax =  -7.47627666441986E-08  9.49595642566026E+00
 cg2d: Sum(rhs),rhsMax =  -7.47686570434780E-08  9.49523896197083E+00
 cg2d: Sum(rhs),rhsMax =  -7.47742205930990E-08  9.49455904201468E+00
 cg2d: Sum(rhs),rhsMax =  -7.47793578170786E-08  9.49392104808525E+00
 cg2d: Sum(rhs),rhsMax =  -7.47843102999468E-08  9.49332815058320E+00
 cg2d: Sum(rhs),rhsMax =  -7.47889217223019E-08  9.49278226320107E+00
 cg2d: Sum(rhs),rhsMax =  -7.47930855027334E-08  9.49228403703651E+00
 cg2d: Sum(rhs),rhsMax =  -7.47963611047453E-08  9.49183288684206E+00
 cg2d: Sum(rhs),rhsMax =  -7.48000417161165E-08  9.49142705076112E+00
 cg2d: Sum(rhs),rhsMax =  -7.48029052033417E-08  9.49106366991647E+00
 cg2d: Sum(rhs),rhsMax =  -7.48058113231309E-08  9.49073888097194E+00
 cg2d: Sum(rhs),rhsMax =  -7.48079642676203E-08  9.49044792286002E+00
 cg2d: Sum(rhs),rhsMax =  -7.48104369563407E-08  9.49018527463466E+00
 EXTERNAL_FIELDS_LOAD, it=   3600330 : Reading new data, i0,i1=    6    7 (prev=    5   10 )
 DIC_FIELDS_LOAD, it=   3600330 : Reading new data, i0,i1=    6    7 (prev=    5    6 )
 cg2d: Sum(rhs),rhsMax =  -7.48125685845480E-08  9.48994481428126E+00
 cg2d: Sum(rhs),rhsMax =  -7.48145367879260E-08  9.48970977028949E+00
 cg2d: Sum(rhs),rhsMax =  -7.48167536812616E-08  9.48946667050908E+00
 cg2d: Sum(rhs),rhsMax =  -7.48186579357935E-08  9.48920195983684E+00
 cg2d: Sum(rhs),rhsMax =  -7.48212727330611E-08  9.48890231838115E+00
 cg2d: Sum(rhs),rhsMax =  -7.48240864822947E-08  9.48855490239494E+00
 cg2d: Sum(rhs),rhsMax =  -7.48277528828112E-08  9.48814760448955E+00
 cg2d: Sum(rhs),rhsMax =  -7.48317106058494E-08  9.48766929469714E+00
 cg2d: Sum(rhs),rhsMax =  -7.48361301816658E-08  9.48711003726197E+00
 cg2d: Sum(rhs),rhsMax =  -7.48412745110727E-08  9.48646127184076E+00
 cg2d: Sum(rhs),rhsMax =  -7.48473496514634E-08  9.48571598443359E+00
 cg2d: Sum(rhs),rhsMax =  -7.48540713857437E-08  9.48486884714226E+00
 cg2d: Sum(rhs),rhsMax =  -7.48618091961362E-08  9.48391631089758E+00
 cg2d: Sum(rhs),rhsMax =  -7.48703143926832E-08  9.48285664384895E+00
 cg2d: Sum(rhs),rhsMax =  -7.48790469629057E-08  9.48168991622247E+00
 cg2d: Sum(rhs),rhsMax =  -7.48895487845402E-08  9.48041794354397E+00
 cg2d: Sum(rhs),rhsMax =  -7.49003561395511E-08  9.47904418707887E+00
 cg2d: Sum(rhs),rhsMax =  -7.49121227272553E-08  9.47757361133926E+00
 cg2d: Sum(rhs),rhsMax =  -7.49249196019264E-08  9.47601250495736E+00
 cg2d: Sum(rhs),rhsMax =  -7.49377875308710E-08  9.47436827146146E+00
 cg2d: Sum(rhs),rhsMax =  -7.49514157405429E-08  9.47264919973884E+00
 cg2d: Sum(rhs),rhsMax =  -7.49656123844034E-08  9.47086422427234E+00
 cg2d: Sum(rhs),rhsMax =  -7.49802140376232E-08  9.46902267691356E+00
 cg2d: Sum(rhs),rhsMax =  -7.49953059653308E-08  9.46713403481286E+00
 cg2d: Sum(rhs),rhsMax =  -7.50105257907308E-08  9.46520767024855E+00
 cg2d: Sum(rhs),rhsMax =  -7.50263424720288E-08  9.46325259778073E+00
 cg2d: Sum(rhs),rhsMax =  -7.50422373130277E-08  9.46127726524814E+00
 cg2d: Sum(rhs),rhsMax =  -7.50577768826588E-08  9.45928937477588E+00
 cg2d: Sum(rhs),rhsMax =  -7.50738990973332E-08  9.45729571583441E+00
 cg2d: Sum(rhs),rhsMax =  -7.50896163026482E-08  9.45530206338839E+00
 cg2d: Sum(rhs),rhsMax =  -7.51056461467670E-08  9.45331309804778E+00
 cg2d: Sum(rhs),rhsMax =  -7.51212709815263E-08  9.45133234916556E+00
 cg2d: Sum(rhs),rhsMax =  -7.51373789853460E-08  9.44936217148271E+00
 cg2d: Sum(rhs),rhsMax =  -7.51527906572846E-08  9.44740375781686E+00
 cg2d: Sum(rhs),rhsMax =  -7.51685931277279E-08  9.44545718748645E+00
 cg2d: Sum(rhs),rhsMax =  -7.51841966462052E-08  9.44352151007986E+00
 cg2d: Sum(rhs),rhsMax =  -7.51994591041694E-08  9.44159486329961E+00
 cg2d: Sum(rhs),rhsMax =  -7.52147784055524E-08  9.43967460290015E+00
 cg2d: Sum(rhs),rhsMax =  -7.52305737705683E-08  9.43775744343237E+00
 cg2d: Sum(rhs),rhsMax =  -7.52457793851136E-08  9.43583960877673E+00
 cg2d: Sum(rhs),rhsMax =  -7.52614752741465E-08  9.43391698185443E+00
 cg2d: Sum(rhs),rhsMax =  -7.52768585243757E-08  9.43198524752366E+00
 cg2d: Sum(rhs),rhsMax =  -7.52925899405454E-08  9.43004003060471E+00
 cg2d: Sum(rhs),rhsMax =  -7.53084705706897E-08  9.42807701983885E+00
 cg2d: Sum(rhs),rhsMax =  -7.53246993667744E-08  9.42609207475689E+00
 cg2d: Sum(rhs),rhsMax =  -7.53408997411498E-08  9.42408132282525E+00
 cg2d: Sum(rhs),rhsMax =  -7.53572138023628E-08  9.42204124662806E+00
 cg2d: Sum(rhs),rhsMax =  -7.53741673520381E-08  9.41996876781019E+00
 cg2d: Sum(rhs),rhsMax =  -7.53910782691491E-08  9.41786131641806E+00
 cg2d: Sum(rhs),rhsMax =  -7.54086713072866E-08  9.41571688244791E+00
 cg2d: Sum(rhs),rhsMax =  -7.54266125113645E-08  9.41353407021840E+00
 cg2d: Sum(rhs),rhsMax =  -7.54444755557415E-08  9.41131216516102E+00
 cg2d: Sum(rhs),rhsMax =  -7.54630704591364E-08  9.40905115996980E+00
 cg2d: Sum(rhs),rhsMax =  -7.54816795733859E-08  9.40675174533744E+00
 cg2d: Sum(rhs),rhsMax =  -7.55005373775930E-08  9.40441527809810E+00
 cg2d: Sum(rhs),rhsMax =  -7.55200275648349E-08  9.40204373790542E+00
 cg2d: Sum(rhs),rhsMax =  -7.55398446017352E-08  9.39963967991296E+00
 cg2d: Sum(rhs),rhsMax =  -7.55594129486781E-08  9.39720618276624E+00
 cg2d: Sum(rhs),rhsMax =  -7.55797202600661E-08  9.39474678273504E+00
 cg2d: Sum(rhs),rhsMax =  -7.56002052071381E-08  9.39226540565015E+00
 EXTERNAL_FIELDS_LOAD, it=   3600390 : Reading new data, i0,i1=    7    8 (prev=    6    7 )
 DIC_FIELDS_LOAD, it=   3600390 : Reading new data, i0,i1=    7    8 (prev=    6    7 )
 cg2d: Sum(rhs),rhsMax =  -7.56204627805346E-08  9.38976628030644E+00
 cg2d: Sum(rhs),rhsMax =  -7.56415232672225E-08  9.38724775533259E+00
 cg2d: Sum(rhs),rhsMax =  -7.56618732111747E-08  9.38470942901966E+00
 cg2d: Sum(rhs),rhsMax =  -7.56830758064098E-08  9.38215030318780E+00
 cg2d: Sum(rhs),rhsMax =  -7.57043636667731E-08  9.37956883924381E+00
 cg2d: Sum(rhs),rhsMax =  -7.57257581085469E-08  9.37696305631202E+00
 cg2d: Sum(rhs),rhsMax =  -7.57472449208763E-08  9.37433065622099E+00
 cg2d: Sum(rhs),rhsMax =  -7.57689306851717E-08  9.37166915330181E+00
 cg2d: Sum(rhs),rhsMax =  -7.57913838356217E-08  9.36897600473142E+00
 cg2d: Sum(rhs),rhsMax =  -7.58139293566273E-08  9.36624871729081E+00
 cg2d: Sum(rhs),rhsMax =  -7.58368727815650E-08  9.36348495363947E+00
 cg2d: Sum(rhs),rhsMax =  -7.58596883088103E-08  9.36068261643794E+00
 cg2d: Sum(rhs),rhsMax =  -7.58831930625092E-08  9.35783991548456E+00
 cg2d: Sum(rhs),rhsMax =  -7.59071596689864E-08  9.35495541522523E+00
 cg2d: Sum(rhs),rhsMax =  -7.59316307608060E-08  9.35202806312956E+00
 cg2d: Sum(rhs),rhsMax =  -7.59561444851897E-08  9.34905718311665E+00
 cg2d: Sum(rhs),rhsMax =  -7.59807505801291E-08  9.34604244734688E+00
 cg2d: Sum(rhs),rhsMax =  -7.60062519589155E-08  9.34298385173757E+00
 cg2d: Sum(rhs),rhsMax =  -7.60316041237274E-08  9.33988171405705E+00
 cg2d: Sum(rhs),rhsMax =  -7.60576810421298E-08  9.33673667089172E+00
 cg2d: Sum(rhs),rhsMax =  -7.60842198133105E-08  9.33354966433849E+00
 cg2d: Sum(rhs),rhsMax =  -7.61109362201751E-08  9.33032189428481E+00
 cg2d: Sum(rhs),rhsMax =  -7.61379794766981E-08  9.32705473610878E+00
 cg2d: Sum(rhs),rhsMax =  -7.61650014169390E-08  9.32374964223594E+00
 cg2d: Sum(rhs),rhsMax =  -7.61924070502573E-08  9.32040805771324E+00
 cg2d: Sum(rhs),rhsMax =  -7.62202390092170E-08  9.31703133797851E+00
 cg2d: Sum(rhs),rhsMax =  -7.62486536132201E-08  9.31362068532222E+00
 cg2d: Sum(rhs),rhsMax =  -7.62769758466675E-08  9.31017709807696E+00
 cg2d: Sum(rhs),rhsMax =  -7.63053833452432E-08  9.30670132260387E+00
 cg2d: Sum(rhs),rhsMax =  -7.63343095400160E-08  9.30319380786966E+00
 cg2d: Sum(rhs),rhsMax =  -7.63631078370963E-08  9.29965466644313E+00
 cg2d: Sum(rhs),rhsMax =  -7.63924603575106E-08  9.29608366095666E+00
 cg2d: Sum(rhs),rhsMax =  -7.64222036764295E-08  9.29248016366683E+00
 cg2d: Sum(rhs),rhsMax =  -7.64520393659041E-08  9.28884314276847E+00
 cg2d: Sum(rhs),rhsMax =  -7.64822445376012E-08  9.28517117681256E+00
 cg2d: Sum(rhs),rhsMax =  -7.65125633961361E-08  9.28146248933914E+00
 cg2d: Sum(rhs),rhsMax =  -7.65432446314662E-08  9.27771499430064E+00
 cg2d: Sum(rhs),rhsMax =  -7.65746861475236E-08  9.27392634829171E+00
 cg2d: Sum(rhs),rhsMax =  -7.66061276635810E-08  9.27009401586145E+00
 cg2d: Sum(rhs),rhsMax =  -7.66378391858780E-08  9.26621534803516E+00
 cg2d: Sum(rhs),rhsMax =  -7.66705383625776E-08  9.26228766593419E+00
 cg2d: Sum(rhs),rhsMax =  -7.67030741144481E-08  9.25830830078040E+00
 cg2d: Sum(rhs),rhsMax =  -7.67362919873449E-08  9.25427464244149E+00
 cg2d: Sum(rhs),rhsMax =  -7.67699646075926E-08  9.25018420208542E+00
 cg2d: Sum(rhs),rhsMax =  -7.68039853937807E-08  9.24603467114681E+00
 cg2d: Sum(rhs),rhsMax =  -7.68388872529613E-08  9.24182397900772E+00
 cg2d: Sum(rhs),rhsMax =  -7.68742154377833E-08  9.23755034859452E+00
 cg2d: Sum(rhs),rhsMax =  -7.69100552133750E-08  9.23321234366443E+00
 cg2d: Sum(rhs),rhsMax =  -7.69468400108053E-08  9.22880889968266E+00
 cg2d: Sum(rhs),rhsMax =  -7.69835182268253E-08  9.22433933197490E+00
 cg2d: Sum(rhs),rhsMax =  -7.70209354072904E-08  9.21980332836426E+00
 cg2d: Sum(rhs),rhsMax =  -7.70591341847648E-08  9.21520093492414E+00
 cg2d: Sum(rhs),rhsMax =  -7.70982282460864E-08  9.21053254057723E+00
 cg2d: Sum(rhs),rhsMax =  -7.71375923136475E-08  9.20579886154174E+00
 cg2d: Sum(rhs),rhsMax =  -7.71773187580038E-08  9.20100092277316E+00
 cg2d: Sum(rhs),rhsMax =  -7.72178623265063E-08  9.19614003508373E+00
 cg2d: Sum(rhs),rhsMax =  -7.72588606423597E-08  9.19121776376076E+00
 cg2d: Sum(rhs),rhsMax =  -7.73005126575299E-08  9.18623589368687E+00
 cg2d: Sum(rhs),rhsMax =  -7.73430812728293E-08  9.18119640414723E+00
 cg2d: Sum(rhs),rhsMax =  -7.73854154090259E-08  9.17610144209478E+00
 EXTERNAL_FIELDS_LOAD, it=   3600450 : Reading new data, i0,i1=    8    9 (prev=    7    8 )
 DIC_FIELDS_LOAD, it=   3600450 : Reading new data, i0,i1=    8    9 (prev=    7    8 )
 cg2d: Sum(rhs),rhsMax =  -7.74284956150950E-08  9.17095326904567E+00
 cg2d: Sum(rhs),rhsMax =  -7.74719595142415E-08  9.16576412699309E+00
 cg2d: Sum(rhs),rhsMax =  -7.75162902755255E-08  9.16054233368469E+00
 cg2d: Sum(rhs),rhsMax =  -7.75600952351851E-08  9.15529583959941E+00
 cg2d: Sum(rhs),rhsMax =  -7.76045467887343E-08  9.15003201693785E+00
 cg2d: Sum(rhs),rhsMax =  -7.76489557097193E-08  9.14475750599293E+00
 cg2d: Sum(rhs),rhsMax =  -7.76937127966448E-08  9.13947810620331E+00
 cg2d: Sum(rhs),rhsMax =  -7.77385196215619E-08  9.13419871539155E+00
 cg2d: Sum(rhs),rhsMax =  -7.77830635456667E-08  9.12892331307296E+00
 cg2d: Sum(rhs),rhsMax =  -7.78277424728913E-08  9.12365496001899E+00
 cg2d: Sum(rhs),rhsMax =  -7.78721371830216E-08  9.11839580250666E+00
 cg2d: Sum(rhs),rhsMax =  -7.79170150622122E-08  9.11314707861780E+00
 cg2d: Sum(rhs),rhsMax =  -7.79618360979839E-08  9.10790912686148E+00
 cg2d: Sum(rhs),rhsMax =  -7.80063302840972E-08  9.10268140327570E+00
 cg2d: Sum(rhs),rhsMax =  -7.80512792175614E-08  9.09746251290633E+00
 cg2d: Sum(rhs),rhsMax =  -7.80961926238888E-08  9.09225025831423E+00
 cg2d: Sum(rhs),rhsMax =  -7.81409141836775E-08  9.08704170372423E+00
 cg2d: Sum(rhs),rhsMax =  -7.81859057497059E-08  9.08183325412304E+00
 cg2d: Sum(rhs),rhsMax =  -7.82307836288965E-08  9.07662074967284E+00
 cg2d: Sum(rhs),rhsMax =  -7.82759315143267E-08  9.07139957792224E+00
 cg2d: Sum(rhs),rhsMax =  -7.83211078214663E-08  9.06616480379289E+00
 cg2d: Sum(rhs),rhsMax =  -7.83665612402729E-08  9.06091131197731E+00
 cg2d: Sum(rhs),rhsMax =  -7.84124978281397E-08  9.05563395765243E+00
 cg2d: Sum(rhs),rhsMax =  -7.84584273105793E-08  9.05032772066772E+00
 cg2d: Sum(rhs),rhsMax =  -7.85049394380621E-08  9.04498784959721E+00
 cg2d: Sum(rhs),rhsMax =  -7.85514657763997E-08  9.03960999802522E+00
 cg2d: Sum(rhs),rhsMax =  -7.85986244977721E-08  9.03419034933061E+00
 cg2d: Sum(rhs),rhsMax =  -7.86464653401708E-08  9.02872572370695E+00
 cg2d: Sum(rhs),rhsMax =  -7.86944696073988E-08  9.02321366240276E+00
 cg2d: Sum(rhs),rhsMax =  -7.87431417847984E-08  9.01765248043218E+00
 cg2d: Sum(rhs),rhsMax =  -7.87920484413007E-08  9.01204128366352E+00
 cg2d: Sum(rhs),rhsMax =  -7.88417082731030E-08  9.00637994805543E+00
 cg2d: Sum(rhs),rhsMax =  -7.88920360150769E-08  9.00066907167982E+00
 cg2d: Sum(rhs),rhsMax =  -7.89423353353413E-08  8.99490990653884E+00
 cg2d: Sum(rhs),rhsMax =  -7.89935867828717E-08  8.98910428085158E+00
 cg2d: Sum(rhs),rhsMax =  -7.90451721854879E-08  8.98325450032841E+00
 cg2d: Sum(rhs),rhsMax =  -7.90971625974635E-08  8.97736324616216E+00
 cg2d: Sum(rhs),rhsMax =  -7.91497498653371E-08  8.97143347490525E+00
 cg2d: Sum(rhs),rhsMax =  -7.92022945006465E-08  8.96546832283943E+00
 cg2d: Sum(rhs),rhsMax =  -7.92553649375805E-08  8.95947101876645E+00
 cg2d: Sum(rhs),rhsMax =  -7.93088545947285E-08  8.95344480865740E+00
 cg2d: Sum(rhs),rhsMax =  -7.93626284689708E-08  8.94739288844395E+00
 cg2d: Sum(rhs),rhsMax =  -7.94164307649226E-08  8.94131834581199E+00
 cg2d: Sum(rhs),rhsMax =  -7.94707304407893E-08  8.93522409346950E+00
 cg2d: Sum(rhs),rhsMax =  -7.95254209151608E-08  8.92911278517729E+00
 cg2d: Sum(rhs),rhsMax =  -7.95802961306435E-08  8.92298675820892E+00
 cg2d: Sum(rhs),rhsMax =  -7.96350860809980E-08  8.91684802723521E+00
 cg2d: Sum(rhs),rhsMax =  -7.96901744593015E-08  8.91069816303900E+00
 cg2d: Sum(rhs),rhsMax =  -7.97458028500841E-08  8.90453822689960E+00
 cg2d: Sum(rhs),rhsMax =  -7.98008059632593E-08  8.89836886679347E+00
 cg2d: Sum(rhs),rhsMax =  -7.98565338300250E-08  8.89219046877893E+00
 cg2d: Sum(rhs),rhsMax =  -7.99122830130727E-08  8.88600325900496E+00
 cg2d: Sum(rhs),rhsMax =  -7.99680890395393E-08  8.87980729026012E+00
 cg2d: Sum(rhs),rhsMax =  -8.00242716536559E-08  8.87360238895611E+00
 cg2d: Sum(rhs),rhsMax =  -8.00806461143111E-08  8.86738778998965E+00
 cg2d: Sum(rhs),rhsMax =  -8.01370845238125E-08  8.86116239780069E+00
 cg2d: Sum(rhs),rhsMax =  -8.01937503069894E-08  8.85492496573172E+00
 cg2d: Sum(rhs),rhsMax =  -8.02502100327729E-08  8.84867413251653E+00
 cg2d: Sum(rhs),rhsMax =  -8.03073376687280E-08  8.84240642216679E+00
 cg2d: Sum(rhs),rhsMax =  -8.03649982117349E-08  8.83611901543530E+00
 EXTERNAL_FIELDS_LOAD, it=   3600510 : Reading new data, i0,i1=    9   10 (prev=    8    9 )
 DIC_FIELDS_LOAD, it=   3600510 : Reading new data, i0,i1=    9   10 (prev=    8    9 )
 cg2d: Sum(rhs),rhsMax =  -8.04221684802542E-08  8.82980958620308E+00
 cg2d: Sum(rhs),rhsMax =  -8.04801842946290E-08  8.82347769783998E+00
 cg2d: Sum(rhs),rhsMax =  -8.05382569524227E-08  8.81712292682944E+00
 cg2d: Sum(rhs),rhsMax =  -8.05969335715417E-08  8.81074530255714E+00
 cg2d: Sum(rhs),rhsMax =  -8.06557167720712E-08  8.80434529484773E+00
 cg2d: Sum(rhs),rhsMax =  -8.07150399850798E-08  8.79792386244349E+00
 cg2d: Sum(rhs),rhsMax =  -8.07739795050111E-08  8.79148242611313E+00
 cg2d: Sum(rhs),rhsMax =  -8.08336650948149E-08  8.78502288414319E+00
 cg2d: Sum(rhs),rhsMax =  -8.08934359497471E-08  8.77854755016569E+00
 cg2d: Sum(rhs),rhsMax =  -8.09533489132264E-08  8.77205911369779E+00
 cg2d: Sum(rhs),rhsMax =  -8.10136953077745E-08  8.76556055620398E+00
 cg2d: Sum(rhs),rhsMax =  -8.10739990697584E-08  8.75905508378914E+00
 cg2d: Sum(rhs),rhsMax =  -8.11343383588792E-08  8.75254603920936E+00
 cg2d: Sum(rhs),rhsMax =  -8.11948908108207E-08  8.74603681041557E+00
 cg2d: Sum(rhs),rhsMax =  -8.12557274798564E-08  8.73953075362701E+00
 cg2d: Sum(rhs),rhsMax =  -8.13160028201310E-08  8.73303114921060E+00
 cg2d: Sum(rhs),rhsMax =  -8.13765623774998E-08  8.72654114513270E+00
 cg2d: Sum(rhs),rhsMax =  -8.14376406310657E-08  8.72006369581994E+00
 cg2d: Sum(rhs),rhsMax =  -8.14983778241185E-08  8.71360148708201E+00
 cg2d: Sum(rhs),rhsMax =  -8.15589231706326E-08  8.70715691042129E+00
 cg2d: Sum(rhs),rhsMax =  -8.16189995589411E-08  8.70073208392416E+00
 cg2d: Sum(rhs),rhsMax =  -8.16794241131902E-08  8.69432884794314E+00
 cg2d: Sum(rhs),rhsMax =  -8.17399907759864E-08  8.68794879382850E+00
 cg2d: Sum(rhs),rhsMax =  -8.17998682123289E-08  8.68159798467576E+00
 cg2d: Sum(rhs),rhsMax =  -8.18599232843553E-08  8.67528128146757E+00
 cg2d: Sum(rhs),rhsMax =  -8.19197296664242E-08  8.66900202377271E+00
 cg2d: Sum(rhs),rhsMax =  -8.19787686623386E-08  8.66276246601009E+00
 cg2d: Sum(rhs),rhsMax =  -8.20377223931246E-08  8.65656395618254E+00
 cg2d: Sum(rhs),rhsMax =  -8.20966974401927E-08  8.65040695084001E+00
 cg2d: Sum(rhs),rhsMax =  -8.21545782514477E-08  8.64429120753706E+00
 cg2d: Sum(rhs),rhsMax =  -8.22127219635149E-08  8.63821394130229E+00
 cg2d: Sum(rhs),rhsMax =  -8.22708088321633E-08  8.63217228139934E+00
 cg2d: Sum(rhs),rhsMax =  -8.23281567363665E-08  8.62616282396185E+00
 cg2d: Sum(rhs),rhsMax =  -8.23857178033904E-08  8.62018163636291E+00
 cg2d: Sum(rhs),rhsMax =  -8.24428312284908E-08  8.61422433474279E+00
 cg2d: Sum(rhs),rhsMax =  -8.25005628257713E-08  8.60828614974574E+00
 cg2d: Sum(rhs),rhsMax =  -8.25572783469397E-08  8.60236210888393E+00
 cg2d: Sum(rhs),rhsMax =  -8.26141359766552E-08  8.59644722891299E+00
 cg2d: Sum(rhs),rhsMax =  -8.26714909862858E-08  8.59053676605781E+00
 cg2d: Sum(rhs),rhsMax =  -8.27286612548050E-08  8.58462635148552E+00
 cg2d: Sum(rhs),rhsMax =  -1.70893812878603E-07  8.57871220143756E+00
 cg2d: Sum(rhs),rhsMax =  -1.71012182192953E-07  8.57279118223544E+00
 cg2d: Sum(rhs),rhsMax =  -1.71131077308928E-07  8.56686080478434E+00
 cg2d: Sum(rhs),rhsMax =  -1.71250100322595E-07  8.56091923082890E+00
 cg2d: Sum(rhs),rhsMax =  -1.71369840984426E-07  8.55496530565182E+00
 cg2d: Sum(rhs),rhsMax =  -1.71490000866470E-07  8.54899842465179E+00
 cg2d: Sum(rhs),rhsMax =  -1.71610430754754E-07  8.54301850220576E+00
 cg2d: Sum(rhs),rhsMax =  -1.71731116438423E-07  8.53702587658860E+00
 cg2d: Sum(rhs),rhsMax =  -1.71852235553160E-07  8.53102128129651E+00
 cg2d: Sum(rhs),rhsMax =  -1.71974036788924E-07  8.52500588175206E+00
 cg2d: Sum(rhs),rhsMax =  -1.70893812878603E-07  8.57871220143756E+00
 cg2d: Sum(rhs),rhsMax =  -1.71012182192953E-07  8.57279118223544E+00
 cg2d: Sum(rhs),rhsMax =  -1.71131077308928E-07  8.56686080478434E+00
 cg2d: Sum(rhs),rhsMax =  -1.71250100322595E-07  8.56091923082890E+00
 cg2d: Sum(rhs),rhsMax =  -1.71369840984426E-07  8.55496530565182E+00
 cg2d: Sum(rhs),rhsMax =  -1.71490000866470E-07  8.54899842465179E+00
 cg2d: Sum(rhs),rhsMax =  -1.71610430754754E-07  8.54301850220576E+00
 cg2d: Sum(rhs),rhsMax =  -1.71731116438423E-07  8.53702587658860E+00
 cg2d: Sum(rhs),rhsMax =  -1.71852235553160E-07  8.53102128129651E+00
 cg2d: Sum(rhs),rhsMax =   3.22226426874295E-07  8.52500609043598E+00
 cg2d: Sum(rhs),rhsMax =  -1.11045200812399E-12  1.72785683996347E-02
 cg2d: Sum(rhs),rhsMax =  -1.70893812878603E-07  8.57871220143756E+00
 cg2d: Sum(rhs),rhsMax =  -1.71012182192953E-07  8.57279118223544E+00
 cg2d: Sum(rhs),rhsMax =  -1.71131077308928E-07  8.56686080478434E+00
 cg2d: Sum(rhs),rhsMax =  -1.71250100322595E-07  8.56091923082890E+00
 cg2d: Sum(rhs),rhsMax =  -1.71369840984426E-07  8.55496530565182E+00
 cg2d: Sum(rhs),rhsMax =  -1.71490000866470E-07  8.54899842465179E+00
 cg2d: Sum(rhs),rhsMax =  -1.71610430754754E-07  8.54301850220576E+00
 cg2d: Sum(rhs),rhsMax =  -1.71731116438423E-07  8.53702587658860E+00
 cg2d: Sum(rhs),rhsMax =  -3.36688586344280E-07  8.53102094039410E+00
 cg2d: Sum(rhs),rhsMax =  -1.04866809680360E-12  1.72244768148740E-02
 cg2d: Sum(rhs),rhsMax =  -1.70893812878603E-07  8.57871220143756E+00
 cg2d: Sum(rhs),rhsMax =  -1.71012182192953E-07  8.57279118223544E+00
 cg2d: Sum(rhs),rhsMax =  -1.71131077308928E-07  8.56686080478434E+00
 cg2d: Sum(rhs),rhsMax =  -1.71250100322595E-07  8.56091923082890E+00
 cg2d: Sum(rhs),rhsMax =  -1.71369840984426E-07  8.55496530565182E+00
 cg2d: Sum(rhs),rhsMax =  -1.71490000866470E-07  8.54899842465179E+00
 cg2d: Sum(rhs),rhsMax =  -1.71610430754754E-07  8.54301850220576E+00
 cg2d: Sum(rhs),rhsMax =  -1.67050193056184E-06  8.53702550283284E+00
 cg2d: Sum(rhs),rhsMax =  -9.31567323281257E-13  1.71874981700063E-02
 cg2d: Sum(rhs),rhsMax =  -1.70893812878603E-07  8.57871220143756E+00
 cg2d: Sum(rhs),rhsMax =  -1.71012182192953E-07  8.57279118223544E+00
 cg2d: Sum(rhs),rhsMax =  -1.71131077308928E-07  8.56686080478434E+00
 cg2d: Sum(rhs),rhsMax =  -1.71250100322595E-07  8.56091923082890E+00
 cg2d: Sum(rhs),rhsMax =  -1.71369840984426E-07  8.55496530565182E+00
 cg2d: Sum(rhs),rhsMax =  -1.71490000866470E-07  8.54899842465179E+00
 cg2d: Sum(rhs),rhsMax =  -2.91894806991877E-07  8.54301854946733E+00
 cg2d: Sum(rhs),rhsMax =  -8.27747592690997E-13  1.70159586717469E-02
 cg2d: Sum(rhs),rhsMax =  -1.70893812878603E-07  8.57871220143756E+00
 cg2d: Sum(rhs),rhsMax =  -1.71012182192953E-07  8.57279118223544E+00
 cg2d: Sum(rhs),rhsMax =  -1.71131077308928E-07  8.56686080478434E+00
 cg2d: Sum(rhs),rhsMax =  -1.71250100322595E-07  8.56091923082890E+00
 cg2d: Sum(rhs),rhsMax =  -1.71369840984426E-07  8.55496530565182E+00
 cg2d: Sum(rhs),rhsMax =  -7.03587957673335E-07  8.54899810558356E+00
 cg2d: Sum(rhs),rhsMax =  -7.52162221395736E-13  1.66631429168551E-02
 cg2d: Sum(rhs),rhsMax =  -1.70893812878603E-07  8.57871220143756E+00
 cg2d: Sum(rhs),rhsMax =  -1.71012182192953E-07  8.57279118223544E+00
 cg2d: Sum(rhs),rhsMax =  -1.71131077308928E-07  8.56686080478434E+00
 cg2d: Sum(rhs),rhsMax =  -1.71250100322595E-07  8.56091923082890E+00
 cg2d: Sum(rhs),rhsMax =  -8.87295378504405E-07  8.55496523641077E+00
 cg2d: Sum(rhs),rhsMax =  -5.28056764981244E-13  1.80415827257608E-02
 cg2d: Sum(rhs),rhsMax =  -1.70893812878603E-07  8.57871220143756E+00
 cg2d: Sum(rhs),rhsMax =  -1.71012182192953E-07  8.57279118223544E+00
 cg2d: Sum(rhs),rhsMax =  -1.71131077308928E-07  8.56686080478434E+00
 cg2d: Sum(rhs),rhsMax =  -6.57130719616816E-07  8.56091936358285E+00
 cg2d: Sum(rhs),rhsMax =  -4.43804715200002E-13  1.83913690910476E-02
 cg2d: Sum(rhs),rhsMax =  -1.70893812878603E-07  8.57871220143756E+00
 cg2d: Sum(rhs),rhsMax =  -1.71012182192953E-07  8.57279118223544E+00
 cg2d: Sum(rhs),rhsMax =  -2.90587507834061E-07  8.56686067750619E+00
 cg2d: Sum(rhs),rhsMax =  -3.24303084386912E-13  1.81812402988307E-02
 cg2d: Sum(rhs),rhsMax =  -1.70893812878603E-07  8.57871220143756E+00
 cg2d: Sum(rhs),rhsMax =   2.34341214877531E-07  8.57279081282653E+00
 cg2d: Sum(rhs),rhsMax =  -2.34208485938581E-13  1.78918695039102E-02
 cg2d: Sum(rhs),rhsMax =  -1.70893933670868E-07  8.57871220195378E+00
 cg2d: Sum(rhs),rhsMax =  -6.11247163995188E-14  1.77049411419859E-02
 cg2d: Sum(rhs),rhsMax =  -7.46576347410155E-08  9.50907671569018E+00
 cg2d: Sum(rhs),rhsMax =  -7.46636956705515E-08  9.50827538007810E+00
 cg2d: Sum(rhs),rhsMax =  -7.46696002806857E-08  9.50759038673436E+00
 cg2d: Sum(rhs),rhsMax =  -7.46738635371003E-08  9.50702164848735E+00
 cg2d: Sum(rhs),rhsMax =  -7.46774944104800E-08  9.50656668487862E+00
 cg2d: Sum(rhs),rhsMax =  -7.46800878914655E-08  9.50622069715104E+00
 cg2d: Sum(rhs),rhsMax =  -7.46821626762539E-08  9.50597670066013E+00
 cg2d: Sum(rhs),rhsMax =  -7.46832924392038E-08  9.50582571630982E+00
 cg2d: Sum(rhs),rhsMax =  -7.46840456145037E-08  9.50575700943737E+00
 cg2d: Sum(rhs),rhsMax =  -7.46835624454434E-08  9.50575837107225E+00
 cg2d: Sum(rhs),rhsMax =  -7.46833208609132E-08  9.50581645922263E+00
 cg2d: Sum(rhs),rhsMax =  -7.46821982033907E-08  9.50591711991761E+00
 cg2d: Sum(rhs),rhsMax =  -7.46813526575352E-08  9.50604571310823E+00
 cg2d: Sum(rhs),rhsMax =  -7.46798960449269E-08  9.50618745972881E+00
 cg2d: Sum(rhs),rhsMax =  -7.46791073424902E-08  9.50632780119137E+00
 cg2d: Sum(rhs),rhsMax =  -7.46779846849677E-08  9.50645275158785E+00
 cg2d: Sum(rhs),rhsMax =  -7.46776720461639E-08  9.50654922994562E+00
 cg2d: Sum(rhs),rhsMax =  -7.46771249282574E-08  9.50660536798306E+00
 cg2d: Sum(rhs),rhsMax =  -7.46771320336848E-08  9.50661078108177E+00
 cg2d: Sum(rhs),rhsMax =  -7.46778141547111E-08  9.50655679154863E+00
 cg2d: Sum(rhs),rhsMax =  -7.46784394323186E-08  9.50643658250018E+00
 cg2d: Sum(rhs),rhsMax =  -7.46802726325768E-08  9.50624530490270E+00
 cg2d: Sum(rhs),rhsMax =  -7.46821271491172E-08  9.50598009866199E+00
 cg2d: Sum(rhs),rhsMax =  -7.46850545851885E-08  9.50564005870858E+00
 cg2d: Sum(rhs),rhsMax =  -7.46883372926277E-08  9.50522619443621E+00
 cg2d: Sum(rhs),rhsMax =  -7.46918829008791E-08  9.50474133855045E+00
 cg2d: Sum(rhs),rhsMax =  -7.46962030007126E-08  9.50418990415982E+00
 cg2d: Sum(rhs),rhsMax =  -7.47013260138374E-08  9.50357767429962E+00
 cg2d: Sum(rhs),rhsMax =  -7.47062216532868E-08  9.50291163791579E+00
 cg2d: Sum(rhs),rhsMax =  -7.47126236433360E-08  9.50219980056318E+00
 cg2d: Sum(rhs),rhsMax =  -7.47184074612051E-08  9.50145094748729E+00
 cg2d: Sum(rhs),rhsMax =  -7.47247455024080E-08  9.50067438045622E+00
 cg2d: Sum(rhs),rhsMax =  -7.47313322335685E-08  9.49987965703835E+00
 cg2d: Sum(rhs),rhsMax =  -7.47377768561819E-08  9.49907634096511E+00
 cg2d: Sum(rhs),rhsMax =  -7.47441433190943E-08  9.49827377465974E+00
 cg2d: Sum(rhs),rhsMax =  -7.47505310982888E-08  9.49748086980356E+00
 cg2d: Sum(rhs),rhsMax =  -7.47569046666285E-08  9.49670591827534E+00
 cg2d: Sum(rhs),rhsMax =  -7.47627666441986E-08  9.49595642566026E+00
 cg2d: Sum(rhs),rhsMax =  -7.47686570434780E-08  9.49523896197083E+00
 cg2d: Sum(rhs),rhsMax =  -7.47742205930990E-08  9.49455904201468E+00
 cg2d: Sum(rhs),rhsMax =  -7.47793578170786E-08  9.49392104808525E+00
 cg2d: Sum(rhs),rhsMax =  -7.47843102999468E-08  9.49332815058320E+00
 cg2d: Sum(rhs),rhsMax =  -7.47889217223019E-08  9.49278226320107E+00
 cg2d: Sum(rhs),rhsMax =  -7.47930855027334E-08  9.49228403703651E+00
 cg2d: Sum(rhs),rhsMax =  -7.47963611047453E-08  9.49183288684206E+00
 cg2d: Sum(rhs),rhsMax =  -7.48000417161165E-08  9.49142705076112E+00
 cg2d: Sum(rhs),rhsMax =  -7.48029052033417E-08  9.49106366991647E+00
 cg2d: Sum(rhs),rhsMax =  -7.48058113231309E-08  9.49073888097194E+00
 cg2d: Sum(rhs),rhsMax =  -7.48079642676203E-08  9.49044792286002E+00
 cg2d: Sum(rhs),rhsMax =  -7.48104369563407E-08  9.49018527463466E+00
 EXTERNAL_FIELDS_LOAD, it=   3600330 : Reading new data, i0,i1=    6    7 (prev=    5   10 )
 DIC_FIELDS_LOAD, it=   3600330 : Reading new data, i0,i1=    6    7 (prev=    5    6 )
 cg2d: Sum(rhs),rhsMax =  -7.48125685845480E-08  9.48994481428126E+00
 cg2d: Sum(rhs),rhsMax =  -7.48145367879260E-08  9.48970977028949E+00
 cg2d: Sum(rhs),rhsMax =  -7.48167536812616E-08  9.48946667050908E+00
 cg2d: Sum(rhs),rhsMax =  -7.48186579357935E-08  9.48920195983684E+00
 cg2d: Sum(rhs),rhsMax =  -7.48212727330611E-08  9.48890231838115E+00
 cg2d: Sum(rhs),rhsMax =  -7.48240864822947E-08  9.48855490239494E+00
 cg2d: Sum(rhs),rhsMax =  -7.48277528828112E-08  9.48814760448955E+00
 cg2d: Sum(rhs),rhsMax =  -7.48317106058494E-08  9.48766929469714E+00
 cg2d: Sum(rhs),rhsMax =  -7.48361301816658E-08  9.48711003726197E+00
 cg2d: Sum(rhs),rhsMax =  -7.48412745110727E-08  9.48646127184076E+00
 cg2d: Sum(rhs),rhsMax =  -7.48473496514634E-08  9.48571598443359E+00
 cg2d: Sum(rhs),rhsMax =  -7.48540713857437E-08  9.48486884714226E+00
 cg2d: Sum(rhs),rhsMax =  -7.48618091961362E-08  9.48391631089758E+00
 cg2d: Sum(rhs),rhsMax =  -7.48703143926832E-08  9.48285664384895E+00
 cg2d: Sum(rhs),rhsMax =  -7.48790469629057E-08  9.48168991622247E+00
 cg2d: Sum(rhs),rhsMax =  -7.48895487845402E-08  9.48041794354397E+00
 cg2d: Sum(rhs),rhsMax =  -7.49003561395511E-08  9.47904418707887E+00
 cg2d: Sum(rhs),rhsMax =  -7.49121227272553E-08  9.47757361133926E+00
 cg2d: Sum(rhs),rhsMax =  -7.49249196019264E-08  9.47601250495736E+00
 cg2d: Sum(rhs),rhsMax =  -7.49377875308710E-08  9.47436827146146E+00
 cg2d: Sum(rhs),rhsMax =  -7.49514157405429E-08  9.47264919973884E+00
 cg2d: Sum(rhs),rhsMax =  -7.49656123844034E-08  9.47086422427234E+00
 cg2d: Sum(rhs),rhsMax =  -7.49802140376232E-08  9.46902267691356E+00
 cg2d: Sum(rhs),rhsMax =  -7.49953059653308E-08  9.46713403481286E+00
 cg2d: Sum(rhs),rhsMax =  -7.50105257907308E-08  9.46520767024855E+00
 cg2d: Sum(rhs),rhsMax =  -7.50263424720288E-08  9.46325259778073E+00
 cg2d: Sum(rhs),rhsMax =  -7.50422373130277E-08  9.46127726524814E+00
 cg2d: Sum(rhs),rhsMax =  -7.50577768826588E-08  9.45928937477588E+00
 cg2d: Sum(rhs),rhsMax =  -7.50738990973332E-08  9.45729571583441E+00
 cg2d: Sum(rhs),rhsMax =  -7.50896163026482E-08  9.45530206338839E+00
 cg2d: Sum(rhs),rhsMax =  -7.51056461467670E-08  9.45331309804778E+00
 cg2d: Sum(rhs),rhsMax =  -7.51212709815263E-08  9.45133234916556E+00
 cg2d: Sum(rhs),rhsMax =  -7.51373789853460E-08  9.44936217148271E+00
 cg2d: Sum(rhs),rhsMax =  -7.51527906572846E-08  9.44740375781686E+00
 cg2d: Sum(rhs),rhsMax =  -7.51685931277279E-08  9.44545718748645E+00
 cg2d: Sum(rhs),rhsMax =  -7.51841966462052E-08  9.44352151007986E+00
 cg2d: Sum(rhs),rhsMax =  -7.51994591041694E-08  9.44159486329961E+00
 cg2d: Sum(rhs),rhsMax =  -7.52147784055524E-08  9.43967460290015E+00
 cg2d: Sum(rhs),rhsMax =  -7.52305737705683E-08  9.43775744343237E+00
 cg2d: Sum(rhs),rhsMax =  -7.52457793851136E-08  9.43583960877673E+00
 cg2d: Sum(rhs),rhsMax =  -7.52614752741465E-08  9.43391698185443E+00
 cg2d: Sum(rhs),rhsMax =  -7.52768585243757E-08  9.43198524752366E+00
 cg2d: Sum(rhs),rhsMax =  -7.52925899405454E-08  9.43004003060471E+00
 cg2d: Sum(rhs),rhsMax =  -7.53084705706897E-08  9.42807701983885E+00
 cg2d: Sum(rhs),rhsMax =  -7.53246993667744E-08  9.42609207475689E+00
 cg2d: Sum(rhs),rhsMax =  -7.53408997411498E-08  9.42408132282525E+00
 cg2d: Sum(rhs),rhsMax =  -7.53572138023628E-08  9.42204124662806E+00
 cg2d: Sum(rhs),rhsMax =  -7.53741673520381E-08  9.41996876781019E+00
 cg2d: Sum(rhs),rhsMax =  -7.53910782691491E-08  9.41786131641806E+00
 cg2d: Sum(rhs),rhsMax =  -7.54086713072866E-08  9.41571688244791E+00
 cg2d: Sum(rhs),rhsMax =  -7.54266125113645E-08  9.41353407021840E+00
 cg2d: Sum(rhs),rhsMax =  -7.54444755557415E-08  9.41131216516102E+00
 cg2d: Sum(rhs),rhsMax =  -7.54630704591364E-08  9.40905115996980E+00
 cg2d: Sum(rhs),rhsMax =  -7.54816795733859E-08  9.40675174533744E+00
 cg2d: Sum(rhs),rhsMax =  -7.55005373775930E-08  9.40441527809810E+00
 cg2d: Sum(rhs),rhsMax =  -7.55200275648349E-08  9.40204373790542E+00
 cg2d: Sum(rhs),rhsMax =  -7.55398446017352E-08  9.39963967991296E+00
 cg2d: Sum(rhs),rhsMax =  -7.55594129486781E-08  9.39720618276624E+00
 cg2d: Sum(rhs),rhsMax =  -7.55797202600661E-08  9.39474678273504E+00
 cg2d: Sum(rhs),rhsMax =  -7.56002052071381E-08  9.39226540565015E+00
 EXTERNAL_FIELDS_LOAD, it=   3600390 : Reading new data, i0,i1=    7    8 (prev=    6    7 )
 DIC_FIELDS_LOAD, it=   3600390 : Reading new data, i0,i1=    7    8 (prev=    6    7 )
 cg2d: Sum(rhs),rhsMax =  -7.56204627805346E-08  9.38976628030644E+00
 cg2d: Sum(rhs),rhsMax =  -7.56415232672225E-08  9.38724775533259E+00
 cg2d: Sum(rhs),rhsMax =  -7.56618732111747E-08  9.38470942901966E+00
 cg2d: Sum(rhs),rhsMax =  -7.56830758064098E-08  9.38215030318780E+00
 cg2d: Sum(rhs),rhsMax =  -7.57043636667731E-08  9.37956883924381E+00
 cg2d: Sum(rhs),rhsMax =  -7.57257581085469E-08  9.37696305631202E+00
 cg2d: Sum(rhs),rhsMax =  -7.57472449208763E-08  9.37433065622099E+00
 cg2d: Sum(rhs),rhsMax =  -7.57689306851717E-08  9.37166915330181E+00
 cg2d: Sum(rhs),rhsMax =  -7.57913838356217E-08  9.36897600473142E+00
 cg2d: Sum(rhs),rhsMax =  -7.58139293566273E-08  9.36624871729081E+00
 cg2d: Sum(rhs),rhsMax =  -7.58368727815650E-08  9.36348495363947E+00
 cg2d: Sum(rhs),rhsMax =  -7.58596883088103E-08  9.36068261643794E+00
 cg2d: Sum(rhs),rhsMax =  -7.58831930625092E-08  9.35783991548456E+00
 cg2d: Sum(rhs),rhsMax =  -7.59071596689864E-08  9.35495541522523E+00
 cg2d: Sum(rhs),rhsMax =  -7.59316307608060E-08  9.35202806312956E+00
 cg2d: Sum(rhs),rhsMax =  -7.59561444851897E-08  9.34905718311665E+00
 cg2d: Sum(rhs),rhsMax =  -7.59807505801291E-08  9.34604244734688E+00
 cg2d: Sum(rhs),rhsMax =  -7.60062519589155E-08  9.34298385173757E+00
 cg2d: Sum(rhs),rhsMax =  -7.60316041237274E-08  9.33988171405705E+00
 cg2d: Sum(rhs),rhsMax =  -7.60576810421298E-08  9.33673667089172E+00
 cg2d: Sum(rhs),rhsMax =  -7.60842198133105E-08  9.33354966433849E+00
 cg2d: Sum(rhs),rhsMax =  -7.61109362201751E-08  9.33032189428481E+00
 cg2d: Sum(rhs),rhsMax =  -7.61379794766981E-08  9.32705473610878E+00
 cg2d: Sum(rhs),rhsMax =  -7.61650014169390E-08  9.32374964223594E+00
 cg2d: Sum(rhs),rhsMax =  -7.61924070502573E-08  9.32040805771324E+00
 cg2d: Sum(rhs),rhsMax =  -7.62202390092170E-08  9.31703133797851E+00
 cg2d: Sum(rhs),rhsMax =  -7.62486536132201E-08  9.31362068532222E+00
 cg2d: Sum(rhs),rhsMax =  -7.62769758466675E-08  9.31017709807696E+00
 cg2d: Sum(rhs),rhsMax =  -7.63053833452432E-08  9.30670132260387E+00
 cg2d: Sum(rhs),rhsMax =  -7.63343095400160E-08  9.30319380786966E+00
 cg2d: Sum(rhs),rhsMax =  -7.63631078370963E-08  9.29965466644313E+00
 cg2d: Sum(rhs),rhsMax =  -7.63924603575106E-08  9.29608366095666E+00
 cg2d: Sum(rhs),rhsMax =  -7.64222036764295E-08  9.29248016366683E+00
 cg2d: Sum(rhs),rhsMax =  -7.64520393659041E-08  9.28884314276847E+00
 cg2d: Sum(rhs),rhsMax =  -7.64822445376012E-08  9.28517117681256E+00
 cg2d: Sum(rhs),rhsMax =  -7.65125633961361E-08  9.28146248933914E+00
 cg2d: Sum(rhs),rhsMax =  -7.65432446314662E-08  9.27771499430064E+00
 cg2d: Sum(rhs),rhsMax =  -7.65746861475236E-08  9.27392634829171E+00
 cg2d: Sum(rhs),rhsMax =  -7.66061276635810E-08  9.27009401586145E+00
 cg2d: Sum(rhs),rhsMax =  -7.66378391858780E-08  9.26621534803516E+00
 cg2d: Sum(rhs),rhsMax =  -7.66705383625776E-08  9.26228766593419E+00
 cg2d: Sum(rhs),rhsMax =  -7.67030741144481E-08  9.25830830078040E+00
 cg2d: Sum(rhs),rhsMax =  -7.67362919873449E-08  9.25427464244149E+00
 cg2d: Sum(rhs),rhsMax =  -7.67699646075926E-08  9.25018420208542E+00
 cg2d: Sum(rhs),rhsMax =  -7.68039853937807E-08  9.24603467114681E+00
 cg2d: Sum(rhs),rhsMax =  -7.68388872529613E-08  9.24182397900772E+00
 cg2d: Sum(rhs),rhsMax =  -7.68742154377833E-08  9.23755034859452E+00
 cg2d: Sum(rhs),rhsMax =  -7.69100552133750E-08  9.23321234366443E+00
 cg2d: Sum(rhs),rhsMax =  -7.69468400108053E-08  9.22880889968266E+00
 cg2d: Sum(rhs),rhsMax =  -7.69835182268253E-08  9.22433933197490E+00
 cg2d: Sum(rhs),rhsMax =  -7.70209354072904E-08  9.21980332836426E+00
 cg2d: Sum(rhs),rhsMax =  -7.70591341847648E-08  9.21520093492414E+00
 cg2d: Sum(rhs),rhsMax =  -7.70982282460864E-08  9.21053254057723E+00
 cg2d: Sum(rhs),rhsMax =  -7.71375923136475E-08  9.20579886154174E+00
 cg2d: Sum(rhs),rhsMax =  -7.71773187580038E-08  9.20100092277316E+00
 cg2d: Sum(rhs),rhsMax =  -7.72178623265063E-08  9.19614003508373E+00
 cg2d: Sum(rhs),rhsMax =  -7.72588606423597E-08  9.19121776376076E+00
 cg2d: Sum(rhs),rhsMax =  -7.73005126575299E-08  9.18623589368687E+00
 cg2d: Sum(rhs),rhsMax =  -7.73430812728293E-08  9.18119640414723E+00
 cg2d: Sum(rhs),rhsMax =  -7.73854154090259E-08  9.17610144209478E+00
 EXTERNAL_FIELDS_LOAD, it=   3600450 : Reading new data, i0,i1=    8    9 (prev=    7    8 )
 DIC_FIELDS_LOAD, it=   3600450 : Reading new data, i0,i1=    8    9 (prev=    7    8 )
 cg2d: Sum(rhs),rhsMax =  -7.74284956150950E-08  9.17095326904567E+00
 cg2d: Sum(rhs),rhsMax =  -7.74719595142415E-08  9.16576412699309E+00
 cg2d: Sum(rhs),rhsMax =  -7.75162902755255E-08  9.16054233368469E+00
 cg2d: Sum(rhs),rhsMax =  -7.75600952351851E-08  9.15529583959941E+00
 cg2d: Sum(rhs),rhsMax =  -7.76045467887343E-08  9.15003201693785E+00
 cg2d: Sum(rhs),rhsMax =  -7.76489557097193E-08  9.14475750599293E+00
 cg2d: Sum(rhs),rhsMax =  -7.76937127966448E-08  9.13947810620331E+00
 cg2d: Sum(rhs),rhsMax =  -7.77385196215619E-08  9.13419871539155E+00
 cg2d: Sum(rhs),rhsMax =  -7.77830635456667E-08  9.12892331307296E+00
 cg2d: Sum(rhs),rhsMax =  -7.78277424728913E-08  9.12365496001899E+00
 cg2d: Sum(rhs),rhsMax =  -7.78721371830216E-08  9.11839580250666E+00
 cg2d: Sum(rhs),rhsMax =  -7.79170150622122E-08  9.11314707861780E+00
 cg2d: Sum(rhs),rhsMax =  -7.79618360979839E-08  9.10790912686148E+00
 cg2d: Sum(rhs),rhsMax =  -7.80063302840972E-08  9.10268140327570E+00
 cg2d: Sum(rhs),rhsMax =  -7.80512792175614E-08  9.09746251290633E+00
 cg2d: Sum(rhs),rhsMax =  -7.80961926238888E-08  9.09225025831423E+00
 cg2d: Sum(rhs),rhsMax =  -7.81409141836775E-08  9.08704170372423E+00
 cg2d: Sum(rhs),rhsMax =  -7.81859057497059E-08  9.08183325412304E+00
 cg2d: Sum(rhs),rhsMax =  -7.82307836288965E-08  9.07662074967284E+00
 cg2d: Sum(rhs),rhsMax =  -7.82759315143267E-08  9.07139957792224E+00
 cg2d: Sum(rhs),rhsMax =  -7.83211078214663E-08  9.06616480379289E+00
 cg2d: Sum(rhs),rhsMax =  -7.83665612402729E-08  9.06091131197731E+00
 cg2d: Sum(rhs),rhsMax =  -7.84124978281397E-08  9.05563395765243E+00
 cg2d: Sum(rhs),rhsMax =  -7.84584273105793E-08  9.05032772066772E+00
 cg2d: Sum(rhs),rhsMax =  -7.85049394380621E-08  9.04498784959721E+00
 cg2d: Sum(rhs),rhsMax =  -7.85514657763997E-08  9.03960999802522E+00
 cg2d: Sum(rhs),rhsMax =  -7.85986244977721E-08  9.03419034933061E+00
 cg2d: Sum(rhs),rhsMax =  -7.86464653401708E-08  9.02872572370695E+00
 cg2d: Sum(rhs),rhsMax =  -7.86944696073988E-08  9.02321366240276E+00
 cg2d: Sum(rhs),rhsMax =  -7.87431417847984E-08  9.01765248043218E+00
 cg2d: Sum(rhs),rhsMax =  -7.87920484413007E-08  9.01204128366352E+00
 cg2d: Sum(rhs),rhsMax =  -7.88417082731030E-08  9.00637994805543E+00
 cg2d: Sum(rhs),rhsMax =  -7.88920360150769E-08  9.00066907167982E+00
 cg2d: Sum(rhs),rhsMax =  -7.89423353353413E-08  8.99490990653884E+00
 cg2d: Sum(rhs),rhsMax =  -7.89935867828717E-08  8.98910428085158E+00
 cg2d: Sum(rhs),rhsMax =  -7.90451721854879E-08  8.98325450032841E+00
 cg2d: Sum(rhs),rhsMax =  -7.90971625974635E-08  8.97736324616216E+00
 cg2d: Sum(rhs),rhsMax =  -7.91497498653371E-08  8.97143347490525E+00
 cg2d: Sum(rhs),rhsMax =  -7.92022945006465E-08  8.96546832283943E+00
 cg2d: Sum(rhs),rhsMax =  -7.92553649375805E-08  8.95947101876645E+00
 cg2d: Sum(rhs),rhsMax =  -7.93088545947285E-08  8.95344480865740E+00
 cg2d: Sum(rhs),rhsMax =  -7.93626284689708E-08  8.94739288844395E+00
 cg2d: Sum(rhs),rhsMax =  -7.94164307649226E-08  8.94131834581199E+00
 cg2d: Sum(rhs),rhsMax =  -7.94707304407893E-08  8.93522409346950E+00
 cg2d: Sum(rhs),rhsMax =  -7.95254209151608E-08  8.92911278517729E+00
 cg2d: Sum(rhs),rhsMax =  -7.95802961306435E-08  8.92298675820892E+00
 cg2d: Sum(rhs),rhsMax =  -7.96350860809980E-08  8.91684802723521E+00
 cg2d: Sum(rhs),rhsMax =  -7.96901744593015E-08  8.91069816303900E+00
 cg2d: Sum(rhs),rhsMax =  -7.97458028500841E-08  8.90453822689960E+00
 cg2d: Sum(rhs),rhsMax =  -7.98008059632593E-08  8.89836886679347E+00
 cg2d: Sum(rhs),rhsMax =  -7.98565338300250E-08  8.89219046877893E+00
 cg2d: Sum(rhs),rhsMax =  -7.99122830130727E-08  8.88600325900496E+00
 cg2d: Sum(rhs),rhsMax =  -7.99680890395393E-08  8.87980729026012E+00
 cg2d: Sum(rhs),rhsMax =  -8.00242716536559E-08  8.87360238895611E+00
 cg2d: Sum(rhs),rhsMax =  -8.00806461143111E-08  8.86738778998965E+00
 cg2d: Sum(rhs),rhsMax =  -8.01370845238125E-08  8.86116239780069E+00
 cg2d: Sum(rhs),rhsMax =  -8.01937503069894E-08  8.85492496573172E+00
 cg2d: Sum(rhs),rhsMax =  -8.02502100327729E-08  8.84867413251653E+00
 cg2d: Sum(rhs),rhsMax =  -8.03073376687280E-08  8.84240642216679E+00
 cg2d: Sum(rhs),rhsMax =  -8.03649982117349E-08  8.83611901543530E+00
 EXTERNAL_FIELDS_LOAD, it=   3600510 : Reading new data, i0,i1=    9   10 (prev=    8    9 )
 DIC_FIELDS_LOAD, it=   3600510 : Reading new data, i0,i1=    9   10 (prev=    8    9 )
 cg2d: Sum(rhs),rhsMax =  -8.04221684802542E-08  8.82980958620308E+00
 cg2d: Sum(rhs),rhsMax =  -8.04801842946290E-08  8.82347769783998E+00
 cg2d: Sum(rhs),rhsMax =  -8.05382569524227E-08  8.81712292682944E+00
 cg2d: Sum(rhs),rhsMax =  -8.05969335715417E-08  8.81074530255714E+00
 cg2d: Sum(rhs),rhsMax =  -8.06557167720712E-08  8.80434529484773E+00
 cg2d: Sum(rhs),rhsMax =  -8.07150399850798E-08  8.79792386244349E+00
 cg2d: Sum(rhs),rhsMax =  -8.07739795050111E-08  8.79148242611313E+00
 cg2d: Sum(rhs),rhsMax =  -8.08336650948149E-08  8.78502288414319E+00
 cg2d: Sum(rhs),rhsMax =  -8.08934359497471E-08  8.77854755016569E+00
 cg2d: Sum(rhs),rhsMax =  -8.09533489132264E-08  8.77205911369779E+00
 cg2d: Sum(rhs),rhsMax =  -8.10136953077745E-08  8.76556055620398E+00
 cg2d: Sum(rhs),rhsMax =  -8.10739990697584E-08  8.75905508378914E+00
 cg2d: Sum(rhs),rhsMax =  -8.11343383588792E-08  8.75254603920936E+00
 cg2d: Sum(rhs),rhsMax =  -8.11948908108207E-08  8.74603681041557E+00
 cg2d: Sum(rhs),rhsMax =  -8.12557274798564E-08  8.73953075362701E+00
 cg2d: Sum(rhs),rhsMax =  -8.13160028201310E-08  8.73303114921060E+00
 cg2d: Sum(rhs),rhsMax =  -8.13765623774998E-08  8.72654114513270E+00
 cg2d: Sum(rhs),rhsMax =  -8.14376406310657E-08  8.72006369581994E+00
 cg2d: Sum(rhs),rhsMax =  -8.14983778241185E-08  8.71360148708201E+00
 cg2d: Sum(rhs),rhsMax =  -8.15589231706326E-08  8.70715691042129E+00
 cg2d: Sum(rhs),rhsMax =  -8.16189995589411E-08  8.70073208392416E+00
 cg2d: Sum(rhs),rhsMax =  -8.16794241131902E-08  8.69432884794314E+00
 cg2d: Sum(rhs),rhsMax =  -8.17399907759864E-08  8.68794879382850E+00
 cg2d: Sum(rhs),rhsMax =  -8.17998682123289E-08  8.68159798467576E+00
 cg2d: Sum(rhs),rhsMax =  -8.18599232843553E-08  8.67528128146757E+00
 cg2d: Sum(rhs),rhsMax =  -8.19197296664242E-08  8.66900202377271E+00
 cg2d: Sum(rhs),rhsMax =  -8.19787686623386E-08  8.66276246601009E+00
 cg2d: Sum(rhs),rhsMax =  -8.20377223931246E-08  8.65656395618254E+00
 cg2d: Sum(rhs),rhsMax =  -8.20966974401927E-08  8.65040695084001E+00
 cg2d: Sum(rhs),rhsMax =  -8.21545782514477E-08  8.64429120753706E+00
 cg2d: Sum(rhs),rhsMax =   8.25628632128428E-08  8.63821403973587E+00
 cg2d: Sum(rhs),rhsMax =   8.26201826953366E-08  8.63217237905974E+00
 cg2d: Sum(rhs),rhsMax =   8.26775661266765E-08  8.62616291469566E+00
 cg2d: Sum(rhs),rhsMax =   8.27346013920760E-08  8.62018170596377E+00
 cg2d: Sum(rhs),rhsMax =   8.27913950729453E-08  8.61422436520291E+00
 cg2d: Sum(rhs),rhsMax =   8.28481958592420E-08  8.60828612219975E+00
 cg2d: Sum(rhs),rhsMax =   8.29050321726754E-08  8.60236200548965E+00
 cg2d: Sum(rhs),rhsMax =   8.29619892783739E-08  8.59644703467667E+00
 cg2d: Sum(rhs),rhsMax =   8.30186763778329E-08  8.59053647045385E+00
 cg2d: Sum(rhs),rhsMax =   8.30754416369928E-08  8.58462594928634E+00
 cg2d: Sum(rhs),rhsMax =   8.25628632128428E-08  8.63821403973587E+00
 cg2d: Sum(rhs),rhsMax =   8.26201826953366E-08  8.63217237905974E+00
 cg2d: Sum(rhs),rhsMax =   8.26775661266765E-08  8.62616291469566E+00
 cg2d: Sum(rhs),rhsMax =   8.27346013920760E-08  8.62018170596377E+00
 cg2d: Sum(rhs),rhsMax =   8.27913950729453E-08  8.61422436520291E+00
 cg2d: Sum(rhs),rhsMax =   8.28481958592420E-08  8.60828612219975E+00
 cg2d: Sum(rhs),rhsMax =   8.29050321726754E-08  8.60236200548965E+00
 cg2d: Sum(rhs),rhsMax =   8.29619892783739E-08  8.59644703467667E+00
 cg2d: Sum(rhs),rhsMax =   8.30186763778329E-08  8.59053647045385E+00
 cg2d: Sum(rhs),rhsMax =   1.77280185198470E-07  8.58462570240199E+00
 cg2d: Sum(rhs),rhsMax =  -3.21270787750905E-15  1.75950095514077E-02
 cg2d: Sum(rhs),rhsMax =   8.25628632128428E-08  8.63821403973587E+00
 cg2d: Sum(rhs),rhsMax =   8.26201826953366E-08  8.63217237905974E+00
 cg2d: Sum(rhs),rhsMax =   8.26775661266765E-08  8.62616291469566E+00
 cg2d: Sum(rhs),rhsMax =   8.27346013920760E-08  8.62018170596377E+00
 cg2d: Sum(rhs),rhsMax =   8.27913950729453E-08  8.61422436520291E+00
 cg2d: Sum(rhs),rhsMax =   8.28481958592420E-08  8.60828612219975E+00
 cg2d: Sum(rhs),rhsMax =   8.29050321726754E-08  8.60236200548965E+00
 cg2d: Sum(rhs),rhsMax =   8.29619892783739E-08  8.59644703467667E+00
 cg2d: Sum(rhs),rhsMax =   1.04614926499380E-07  8.59053635365879E+00
 cg2d: Sum(rhs),rhsMax =   1.32734101487841E-13  1.79453023855598E-02
 cg2d: Sum(rhs),rhsMax =   8.25628632128428E-08  8.63821403973587E+00
 cg2d: Sum(rhs),rhsMax =   8.26201826953366E-08  8.63217237905974E+00
 cg2d: Sum(rhs),rhsMax =   8.26775661266765E-08  8.62616291469566E+00
 cg2d: Sum(rhs),rhsMax =   8.27346013920760E-08  8.62018170596377E+00
 cg2d: Sum(rhs),rhsMax =   8.27913950729453E-08  8.61422436520291E+00
 cg2d: Sum(rhs),rhsMax =   8.28481958592420E-08  8.60828612219975E+00
 cg2d: Sum(rhs),rhsMax =   8.29050321726754E-08  8.60236200548965E+00
 cg2d: Sum(rhs),rhsMax =   4.81102404137346E-07  8.59644666819521E+00
 cg2d: Sum(rhs),rhsMax =   2.70006239588838E-13  1.82508632669559E-02
 cg2d: Sum(rhs),rhsMax =   8.25628632128428E-08  8.63821403973587E+00
 cg2d: Sum(rhs),rhsMax =   8.26201826953366E-08  8.63217237905974E+00
 cg2d: Sum(rhs),rhsMax =   8.26775661266765E-08  8.62616291469566E+00
 cg2d: Sum(rhs),rhsMax =   8.27346013920760E-08  8.62018170596377E+00
 cg2d: Sum(rhs),rhsMax =   8.27913950729453E-08  8.61422436520291E+00
 cg2d: Sum(rhs),rhsMax =   8.28481958592420E-08  8.60828612219975E+00
 cg2d: Sum(rhs),rhsMax =  -4.08740817192665E-07  8.60236178238250E+00
 cg2d: Sum(rhs),rhsMax =   3.51198237158457E-13  1.85308689091737E-02
 cg2d: Sum(rhs),rhsMax =   8.25628632128428E-08  8.63821403973587E+00
 cg2d: Sum(rhs),rhsMax =   8.26201826953366E-08  8.63217237905974E+00
 cg2d: Sum(rhs),rhsMax =   8.26775661266765E-08  8.62616291469566E+00
 cg2d: Sum(rhs),rhsMax =   8.27346013920760E-08  8.62018170596377E+00
 cg2d: Sum(rhs),rhsMax =   8.27913950729453E-08  8.61422436520291E+00
 cg2d: Sum(rhs),rhsMax =   4.30389292205291E-07  8.60828623964426E+00
 cg2d: Sum(rhs),rhsMax =   4.22939461230953E-13  1.87396898420251E-02
 cg2d: Sum(rhs),rhsMax =   8.25628632128428E-08  8.63821403973587E+00
 cg2d: Sum(rhs),rhsMax =   8.26201826953366E-08  8.63217237905974E+00
 cg2d: Sum(rhs),rhsMax =   8.26775661266765E-08  8.62616291469566E+00
 cg2d: Sum(rhs),rhsMax =   8.27346013920760E-08  8.62018170596377E+00
 cg2d: Sum(rhs),rhsMax =   9.01719729995420E-08  8.61422402144522E+00
 cg2d: Sum(rhs),rhsMax =   6.02962124673923E-13  1.88198251343983E-02
 cg2d: Sum(rhs),rhsMax =   8.25628632128428E-08  8.63821403973587E+00
 cg2d: Sum(rhs),rhsMax =   8.26201826953366E-08  8.63217237905974E+00
 cg2d: Sum(rhs),rhsMax =   8.26775661266765E-08  8.62616291469566E+00
 cg2d: Sum(rhs),rhsMax =  -7.55579449673860E-07  8.62018155277774E+00
 cg2d: Sum(rhs),rhsMax =   7.16975090409022E-13  1.88203878026393E-02
 cg2d: Sum(rhs),rhsMax =   8.25628632128428E-08  8.63821403973587E+00
 cg2d: Sum(rhs),rhsMax =   8.26201826953366E-08  8.63217237905974E+00
 cg2d: Sum(rhs),rhsMax =  -3.68631418723453E-08  8.62616311294033E+00
 cg2d: Sum(rhs),rhsMax =   8.14279199623513E-13  1.87533269099625E-02
 cg2d: Sum(rhs),rhsMax =   8.25628632128428E-08  8.63821403973587E+00
 cg2d: Sum(rhs),rhsMax =   2.70112927580612E-07  8.63217223440780E+00
(PID.TID 0000.0001) // =======================================================
(PID.TID 0000.0001) // Begin AD_MONITOR dynamic field statistics
(PID.TID 0000.0001) // =======================================================
(PID.TID 0000.0001) %MON ad_time_tsnumber             =               3600542
(PID.TID 0000.0001) %MON ad_time_secondsf             =   1.5554341440000E+11
(PID.TID 0000.0001) %MON ad_dynstat_adeta_max         =   5.2133888288586E+02
(PID.TID 0000.0001) %MON ad_dynstat_adeta_min         =  -2.3149292566856E+03
(PID.TID 0000.0001) %MON ad_dynstat_adeta_mean        =  -1.9719529876562E+01
(PID.TID 0000.0001) %MON ad_dynstat_adeta_sd          =   4.7783967246663E+02
(PID.TID 0000.0001) %MON ad_dynstat_adeta_del2        =   3.9467950471408E+00
(PID.TID 0000.0001) %MON ad_dynstat_aduvel_max        =   1.4216565558105E+04
(PID.TID 0000.0001) %MON ad_dynstat_aduvel_min        =  -7.9516818628374E+03
(PID.TID 0000.0001) %MON ad_dynstat_aduvel_mean       =   5.1477398112785E+01
(PID.TID 0000.0001) %MON ad_dynstat_aduvel_sd         =   4.4759741337967E+02
(PID.TID 0000.0001) %MON ad_dynstat_aduvel_del2       =   1.4271889399998E+00
(PID.TID 0000.0001) %MON ad_dynstat_advvel_max        =   6.3409618869287E+03
(PID.TID 0000.0001) %MON ad_dynstat_advvel_min        =  -5.7773715662038E+03
(PID.TID 0000.0001) %MON ad_dynstat_advvel_mean       =   5.4165084217487E+00
(PID.TID 0000.0001) %MON ad_dynstat_advvel_sd         =   3.6917139160506E+02
(PID.TID 0000.0001) %MON ad_dynstat_advvel_del2       =   1.5636769925695E+00
(PID.TID 0000.0001) %MON ad_dynstat_adwvel_max        =   2.2206507161235E+03
(PID.TID 0000.0001) %MON ad_dynstat_adwvel_min        =  -2.9793836132301E+04
(PID.TID 0000.0001) %MON ad_dynstat_adwvel_mean       =  -2.1536483179437E-01
(PID.TID 0000.0001) %MON ad_dynstat_adwvel_sd         =   7.0530397073632E+01
(PID.TID 0000.0001) %MON ad_dynstat_adwvel_del2       =   2.0230285971742E+00
(PID.TID 0000.0001) %MON ad_dynstat_adtheta_max       =   1.2180060003868E+03
(PID.TID 0000.0001) %MON ad_dynstat_adtheta_min       =  -1.0478189908251E+03
(PID.TID 0000.0001) %MON ad_dynstat_adtheta_mean      =   5.3976349135395E-01
(PID.TID 0000.0001) %MON ad_dynstat_adtheta_sd        =   8.4006552772699E+01
(PID.TID 0000.0001) %MON ad_dynstat_adtheta_del2      =   2.8897829749284E-01
(PID.TID 0000.0001) %MON ad_dynstat_adsalt_max        =   5.3900417027735E+03
(PID.TID 0000.0001) %MON ad_dynstat_adsalt_min        =  -6.1384637051826E+03
(PID.TID 0000.0001) %MON ad_dynstat_adsalt_mean       =  -2.8143736226646E+00
(PID.TID 0000.0001) %MON ad_dynstat_adsalt_sd         =   4.5109777722556E+02
(PID.TID 0000.0001) %MON ad_dynstat_adsalt_del2       =   1.4855308956315E+00
(PID.TID 0000.0001) %MON ad_dynstat_adsst_max         =   5.5899571877285E+00
(PID.TID 0000.0001) %MON ad_dynstat_adsst_min         =  -1.8442147333043E+01
(PID.TID 0000.0001) %MON ad_dynstat_adsst_mean        =   4.8549539293064E-02
(PID.TID 0000.0001) %MON ad_dynstat_adsst_sd          =   1.1687754279789E+00
(PID.TID 0000.0001) %MON ad_dynstat_adsst_del2        =   1.9147409997745E-02
(PID.TID 0000.0001) %MON ad_dynstat_adsss_max         =   6.0183686489761E+01
(PID.TID 0000.0001) %MON ad_dynstat_adsss_min         =  -2.1999059868126E+01
(PID.TID 0000.0001) %MON ad_dynstat_adsss_mean        =  -1.1366234188371E-02
(PID.TID 0000.0001) %MON ad_dynstat_adsss_sd          =   3.3264996413800E+00
(PID.TID 0000.0001) %MON ad_dynstat_adsss_del2        =   6.1469460012864E-02
(PID.TID 0000.0001) %MON ad_forcing_adqnet_max        =   0.0000000000000E+00
(PID.TID 0000.0001) %MON ad_forcing_adqnet_min        =   0.0000000000000E+00
(PID.TID 0000.0001) %MON ad_forcing_adqnet_mean       =   0.0000000000000E+00
(PID.TID 0000.0001) %MON ad_forcing_adqnet_sd         =   0.0000000000000E+00
(PID.TID 0000.0001) %MON ad_forcing_adqnet_del2       =   0.0000000000000E+00
(PID.TID 0000.0001) %MON ad_forcing_adqsw_max         =   3.2967458264801E-02
(PID.TID 0000.0001) %MON ad_forcing_adqsw_min         =  -7.6324739876108E-02
(PID.TID 0000.0001) %MON ad_forcing_adqsw_mean        =  -1.0148521922409E-04
(PID.TID 0000.0001) %MON ad_forcing_adqsw_sd          =   4.9477032358349E-03
(PID.TID 0000.0001) %MON ad_forcing_adqsw_del2        =   8.7969049594379E-05
(PID.TID 0000.0001) %MON ad_forcing_adempmr_max       =   0.0000000000000E+00
(PID.TID 0000.0001) %MON ad_forcing_adempmr_min       =   0.0000000000000E+00
(PID.TID 0000.0001) %MON ad_forcing_adempmr_mean      =   0.0000000000000E+00
(PID.TID 0000.0001) %MON ad_forcing_adempmr_sd        =   0.0000000000000E+00
(PID.TID 0000.0001) %MON ad_forcing_adempmr_del2      =   0.0000000000000E+00
(PID.TID 0000.0001) %MON ad_forcing_adfu_max          =   0.0000000000000E+00
(PID.TID 0000.0001) %MON ad_forcing_adfu_min          =   0.0000000000000E+00
(PID.TID 0000.0001) %MON ad_forcing_adfu_mean         =   0.0000000000000E+00
(PID.TID 0000.0001) %MON ad_forcing_adfu_sd           =   0.0000000000000E+00
(PID.TID 0000.0001) %MON ad_forcing_adfu_del2         =   0.0000000000000E+00
(PID.TID 0000.0001) %MON ad_forcing_adfv_max          =   0.0000000000000E+00
(PID.TID 0000.0001) %MON ad_forcing_adfv_min          =   0.0000000000000E+00
(PID.TID 0000.0001) %MON ad_forcing_adfv_mean         =   0.0000000000000E+00
(PID.TID 0000.0001) %MON ad_forcing_adfv_sd           =   0.0000000000000E+00
(PID.TID 0000.0001) %MON ad_forcing_adfv_del2         =   0.0000000000000E+00
(PID.TID 0000.0001) // =======================================================
(PID.TID 0000.0001) // End AD_MONITOR dynamic field statistics
(PID.TID 0000.0001) // =======================================================
(PID.TID 0000.0001) // =======================================================
(PID.TID 0000.0001) // Begin AD_MONITOR ptracer field statistics
(PID.TID 0000.0001) // =======================================================
(PID.TID 0000.0001) %MON ad_trcstat_adptracer01_max   =   0.0000000000000E+00
(PID.TID 0000.0001) %MON ad_trcstat_adptracer01_min   =   0.0000000000000E+00
(PID.TID 0000.0001) %MON ad_trcstat_adptracer01_mean  =   0.0000000000000E+00
(PID.TID 0000.0001) %MON ad_trcstat_adptracer01_sd    =   0.0000000000000E+00
(PID.TID 0000.0001) %MON ad_trcstat_adptracer01_del2  =   0.0000000000000E+00
(PID.TID 0000.0001) %MON ad_trcstat_adptracer02_max   =   0.0000000000000E+00
(PID.TID 0000.0001) %MON ad_trcstat_adptracer02_min   =   0.0000000000000E+00
(PID.TID 0000.0001) %MON ad_trcstat_adptracer02_mean  =   0.0000000000000E+00
(PID.TID 0000.0001) %MON ad_trcstat_adptracer02_sd    =   0.0000000000000E+00
(PID.TID 0000.0001) %MON ad_trcstat_adptracer02_del2  =   0.0000000000000E+00
(PID.TID 0000.0001) %MON ad_trcstat_adptracer03_max   =   3.1017029324500E-22
(PID.TID 0000.0001) %MON ad_trcstat_adptracer03_min   =  -1.3638816166238E-23
(PID.TID 0000.0001) %MON ad_trcstat_adptracer03_mean  =   1.6057725718522E-28
(PID.TID 0000.0001) %MON ad_trcstat_adptracer03_sd    =   3.0665803343389E-25
(PID.TID 0000.0001) %MON ad_trcstat_adptracer03_del2  =   3.8622781111584E-27
(PID.TID 0000.0001) %MON ad_trcstat_adptracer04_max   =   2.2068551325091E+05
(PID.TID 0000.0001) %MON ad_trcstat_adptracer04_min   =  -4.3528905113969E+06
(PID.TID 0000.0001) %MON ad_trcstat_adptracer04_mean  =  -4.1054146424797E+04
(PID.TID 0000.0001) %MON ad_trcstat_adptracer04_sd    =   3.6519161634242E+05
(PID.TID 0000.0001) %MON ad_trcstat_adptracer04_del2  =   7.9613857419943E+02
(PID.TID 0000.0001) %MON ad_trcstat_adptracer05_max   =   3.9355872965775E+05
(PID.TID 0000.0001) %MON ad_trcstat_adptracer05_min   =  -1.8696747413218E+04
(PID.TID 0000.0001) %MON ad_trcstat_adptracer05_mean  =   3.7352005096271E+03
(PID.TID 0000.0001) %MON ad_trcstat_adptracer05_sd    =   3.3179222707443E+04
(PID.TID 0000.0001) %MON ad_trcstat_adptracer05_del2  =   7.2552016127633E+01
(PID.TID 0000.0001) %MON ad_trcstat_adptracer06_max   =   2.2752590224691E+09
(PID.TID 0000.0001) %MON ad_trcstat_adptracer06_min   =  -2.0963658105593E+09
(PID.TID 0000.0001) %MON ad_trcstat_adptracer06_mean  =   8.7050452907896E+05
(PID.TID 0000.0001) %MON ad_trcstat_adptracer06_sd    =   8.8355796860273E+07
(PID.TID 0000.0001) %MON ad_trcstat_adptracer06_del2  =   3.8508527673143E+05
(PID.TID 0000.0001) %MON ad_trcstat_adptracer07_max   =   0.0000000000000E+00
(PID.TID 0000.0001) %MON ad_trcstat_adptracer07_min   =   0.0000000000000E+00
(PID.TID 0000.0001) %MON ad_trcstat_adptracer07_mean  =   0.0000000000000E+00
(PID.TID 0000.0001) %MON ad_trcstat_adptracer07_sd    =   0.0000000000000E+00
(PID.TID 0000.0001) %MON ad_trcstat_adptracer07_del2  =   0.0000000000000E+00
(PID.TID 0000.0001) %MON ad_trcstat_adptracer08_max   =   0.0000000000000E+00
(PID.TID 0000.0001) %MON ad_trcstat_adptracer08_min   =   0.0000000000000E+00
(PID.TID 0000.0001) %MON ad_trcstat_adptracer08_mean  =   0.0000000000000E+00
(PID.TID 0000.0001) %MON ad_trcstat_adptracer08_sd    =   0.0000000000000E+00
(PID.TID 0000.0001) %MON ad_trcstat_adptracer08_del2  =   0.0000000000000E+00
(PID.TID 0000.0001) %MON ad_trcstat_adptracer09_max   =   0.0000000000000E+00
(PID.TID 0000.0001) %MON ad_trcstat_adptracer09_min   =   0.0000000000000E+00
(PID.TID 0000.0001) %MON ad_trcstat_adptracer09_mean  =   0.0000000000000E+00
(PID.TID 0000.0001) %MON ad_trcstat_adptracer09_sd    =   0.0000000000000E+00
(PID.TID 0000.0001) %MON ad_trcstat_adptracer09_del2  =   0.0000000000000E+00
(PID.TID 0000.0001) // =======================================================
(PID.TID 0000.0001) // End AD_MONITOR ptracer field statistics
(PID.TID 0000.0001) // =======================================================
 cg2d: Sum(rhs),rhsMax =   8.92300122679046E-13  1.85928834617105E-02
 cg2d: Sum(rhs),rhsMax =   8.25629697942531E-08  8.63821404047621E+00
 cg2d: Sum(rhs),rhsMax =   9.84712311691283E-13  1.90087097397933E-02
 cg2d: Sum(rhs),rhsMax =  -7.46576347410155E-08  9.50907671569018E+00
 cg2d: Sum(rhs),rhsMax =  -7.46636956705515E-08  9.50827538007810E+00
 cg2d: Sum(rhs),rhsMax =  -7.46696002806857E-08  9.50759038673436E+00
 cg2d: Sum(rhs),rhsMax =  -7.46738635371003E-08  9.50702164848735E+00
 cg2d: Sum(rhs),rhsMax =  -7.46774944104800E-08  9.50656668487862E+00
 cg2d: Sum(rhs),rhsMax =  -7.46800878914655E-08  9.50622069715104E+00
 cg2d: Sum(rhs),rhsMax =  -7.46821626762539E-08  9.50597670066013E+00
 cg2d: Sum(rhs),rhsMax =  -7.46832924392038E-08  9.50582571630982E+00
 cg2d: Sum(rhs),rhsMax =  -7.46840456145037E-08  9.50575700943737E+00
 cg2d: Sum(rhs),rhsMax =  -7.46835624454434E-08  9.50575837107225E+00
 cg2d: Sum(rhs),rhsMax =  -7.46833208609132E-08  9.50581645922263E+00
 cg2d: Sum(rhs),rhsMax =  -7.46821982033907E-08  9.50591711991761E+00
 cg2d: Sum(rhs),rhsMax =  -7.46813526575352E-08  9.50604571310823E+00
 cg2d: Sum(rhs),rhsMax =  -7.46798960449269E-08  9.50618745972881E+00
 cg2d: Sum(rhs),rhsMax =  -7.46791073424902E-08  9.50632780119137E+00
 cg2d: Sum(rhs),rhsMax =  -7.46779846849677E-08  9.50645275158785E+00
 cg2d: Sum(rhs),rhsMax =  -7.46776720461639E-08  9.50654922994562E+00
 cg2d: Sum(rhs),rhsMax =  -7.46771249282574E-08  9.50660536798306E+00
 cg2d: Sum(rhs),rhsMax =  -7.46771320336848E-08  9.50661078108177E+00
 cg2d: Sum(rhs),rhsMax =  -7.46778141547111E-08  9.50655679154863E+00
 cg2d: Sum(rhs),rhsMax =  -7.46784394323186E-08  9.50643658250018E+00
 cg2d: Sum(rhs),rhsMax =  -7.46802726325768E-08  9.50624530490270E+00
 cg2d: Sum(rhs),rhsMax =  -7.46821271491172E-08  9.50598009866199E+00
 cg2d: Sum(rhs),rhsMax =  -7.46850545851885E-08  9.50564005870858E+00
 cg2d: Sum(rhs),rhsMax =  -7.46883372926277E-08  9.50522619443621E+00
 cg2d: Sum(rhs),rhsMax =  -7.46918829008791E-08  9.50474133855045E+00
 cg2d: Sum(rhs),rhsMax =  -7.46962030007126E-08  9.50418990415982E+00
 cg2d: Sum(rhs),rhsMax =  -7.47013260138374E-08  9.50357767429962E+00
 cg2d: Sum(rhs),rhsMax =  -7.47062216532868E-08  9.50291163791579E+00
 cg2d: Sum(rhs),rhsMax =  -7.47126236433360E-08  9.50219980056318E+00
 cg2d: Sum(rhs),rhsMax =  -7.47184074612051E-08  9.50145094748729E+00
 cg2d: Sum(rhs),rhsMax =  -7.47247455024080E-08  9.50067438045622E+00
 cg2d: Sum(rhs),rhsMax =  -7.47313322335685E-08  9.49987965703835E+00
 cg2d: Sum(rhs),rhsMax =  -7.47377768561819E-08  9.49907634096511E+00
 cg2d: Sum(rhs),rhsMax =  -7.47441433190943E-08  9.49827377465974E+00
 cg2d: Sum(rhs),rhsMax =  -7.47505310982888E-08  9.49748086980356E+00
 cg2d: Sum(rhs),rhsMax =  -7.47569046666285E-08  9.49670591827534E+00
 cg2d: Sum(rhs),rhsMax =  -7.47627666441986E-08  9.49595642566026E+00
 cg2d: Sum(rhs),rhsMax =  -7.47686570434780E-08  9.49523896197083E+00
 cg2d: Sum(rhs),rhsMax =  -7.47742205930990E-08  9.49455904201468E+00
 cg2d: Sum(rhs),rhsMax =  -7.47793578170786E-08  9.49392104808525E+00
 cg2d: Sum(rhs),rhsMax =  -7.47843102999468E-08  9.49332815058320E+00
 cg2d: Sum(rhs),rhsMax =  -7.47889217223019E-08  9.49278226320107E+00
 cg2d: Sum(rhs),rhsMax =  -7.47930855027334E-08  9.49228403703651E+00
 cg2d: Sum(rhs),rhsMax =  -7.47963611047453E-08  9.49183288684206E+00
 cg2d: Sum(rhs),rhsMax =  -7.48000417161165E-08  9.49142705076112E+00
 cg2d: Sum(rhs),rhsMax =  -7.48029052033417E-08  9.49106366991647E+00
 cg2d: Sum(rhs),rhsMax =  -7.48058113231309E-08  9.49073888097194E+00
 cg2d: Sum(rhs),rhsMax =  -7.48079642676203E-08  9.49044792286002E+00
 cg2d: Sum(rhs),rhsMax =  -7.48104369563407E-08  9.49018527463466E+00
 EXTERNAL_FIELDS_LOAD, it=   3600330 : Reading new data, i0,i1=    6    7 (prev=    5   10 )
 DIC_FIELDS_LOAD, it=   3600330 : Reading new data, i0,i1=    6    7 (prev=    5    6 )
 cg2d: Sum(rhs),rhsMax =  -7.48125685845480E-08  9.48994481428126E+00
 cg2d: Sum(rhs),rhsMax =  -7.48145367879260E-08  9.48970977028949E+00
 cg2d: Sum(rhs),rhsMax =  -7.48167536812616E-08  9.48946667050908E+00
 cg2d: Sum(rhs),rhsMax =  -7.48186579357935E-08  9.48920195983684E+00
 cg2d: Sum(rhs),rhsMax =  -7.48212727330611E-08  9.48890231838115E+00
 cg2d: Sum(rhs),rhsMax =  -7.48240864822947E-08  9.48855490239494E+00
 cg2d: Sum(rhs),rhsMax =  -7.48277528828112E-08  9.48814760448955E+00
 cg2d: Sum(rhs),rhsMax =  -7.48317106058494E-08  9.48766929469714E+00
 cg2d: Sum(rhs),rhsMax =  -7.48361301816658E-08  9.48711003726197E+00
 cg2d: Sum(rhs),rhsMax =  -7.48412745110727E-08  9.48646127184076E+00
 cg2d: Sum(rhs),rhsMax =  -7.48473496514634E-08  9.48571598443359E+00
 cg2d: Sum(rhs),rhsMax =  -7.48540713857437E-08  9.48486884714226E+00
 cg2d: Sum(rhs),rhsMax =  -7.48618091961362E-08  9.48391631089758E+00
 cg2d: Sum(rhs),rhsMax =  -7.48703143926832E-08  9.48285664384895E+00
 cg2d: Sum(rhs),rhsMax =  -7.48790469629057E-08  9.48168991622247E+00
 cg2d: Sum(rhs),rhsMax =  -7.48895487845402E-08  9.48041794354397E+00
 cg2d: Sum(rhs),rhsMax =  -7.49003561395511E-08  9.47904418707887E+00
 cg2d: Sum(rhs),rhsMax =  -7.49121227272553E-08  9.47757361133926E+00
 cg2d: Sum(rhs),rhsMax =  -7.49249196019264E-08  9.47601250495736E+00
 cg2d: Sum(rhs),rhsMax =  -7.49377875308710E-08  9.47436827146146E+00
 cg2d: Sum(rhs),rhsMax =  -7.49514157405429E-08  9.47264919973884E+00
 cg2d: Sum(rhs),rhsMax =  -7.49656123844034E-08  9.47086422427234E+00
 cg2d: Sum(rhs),rhsMax =  -7.49802140376232E-08  9.46902267691356E+00
 cg2d: Sum(rhs),rhsMax =  -7.49953059653308E-08  9.46713403481286E+00
 cg2d: Sum(rhs),rhsMax =  -7.50105257907308E-08  9.46520767024855E+00
 cg2d: Sum(rhs),rhsMax =  -7.50263424720288E-08  9.46325259778073E+00
 cg2d: Sum(rhs),rhsMax =  -7.50422373130277E-08  9.46127726524814E+00
 cg2d: Sum(rhs),rhsMax =  -7.50577768826588E-08  9.45928937477588E+00
 cg2d: Sum(rhs),rhsMax =  -7.50738990973332E-08  9.45729571583441E+00
 cg2d: Sum(rhs),rhsMax =  -7.50896163026482E-08  9.45530206338839E+00
 cg2d: Sum(rhs),rhsMax =  -7.51056461467670E-08  9.45331309804778E+00
 cg2d: Sum(rhs),rhsMax =  -7.51212709815263E-08  9.45133234916556E+00
 cg2d: Sum(rhs),rhsMax =  -7.51373789853460E-08  9.44936217148271E+00
 cg2d: Sum(rhs),rhsMax =  -7.51527906572846E-08  9.44740375781686E+00
 cg2d: Sum(rhs),rhsMax =  -7.51685931277279E-08  9.44545718748645E+00
 cg2d: Sum(rhs),rhsMax =  -7.51841966462052E-08  9.44352151007986E+00
 cg2d: Sum(rhs),rhsMax =  -7.51994591041694E-08  9.44159486329961E+00
 cg2d: Sum(rhs),rhsMax =  -7.52147784055524E-08  9.43967460290015E+00
 cg2d: Sum(rhs),rhsMax =  -7.52305737705683E-08  9.43775744343237E+00
 cg2d: Sum(rhs),rhsMax =  -7.52457793851136E-08  9.43583960877673E+00
 cg2d: Sum(rhs),rhsMax =  -7.52614752741465E-08  9.43391698185443E+00
 cg2d: Sum(rhs),rhsMax =  -7.52768585243757E-08  9.43198524752366E+00
 cg2d: Sum(rhs),rhsMax =  -7.52925899405454E-08  9.43004003060471E+00
 cg2d: Sum(rhs),rhsMax =  -7.53084705706897E-08  9.42807701983885E+00
 cg2d: Sum(rhs),rhsMax =  -7.53246993667744E-08  9.42609207475689E+00
 cg2d: Sum(rhs),rhsMax =  -7.53408997411498E-08  9.42408132282525E+00
 cg2d: Sum(rhs),rhsMax =  -7.53572138023628E-08  9.42204124662806E+00
 cg2d: Sum(rhs),rhsMax =  -7.53741673520381E-08  9.41996876781019E+00
 cg2d: Sum(rhs),rhsMax =  -7.53910782691491E-08  9.41786131641806E+00
 cg2d: Sum(rhs),rhsMax =  -7.54086713072866E-08  9.41571688244791E+00
 cg2d: Sum(rhs),rhsMax =  -7.54266125113645E-08  9.41353407021840E+00
 cg2d: Sum(rhs),rhsMax =  -7.54444755557415E-08  9.41131216516102E+00
 cg2d: Sum(rhs),rhsMax =  -7.54630704591364E-08  9.40905115996980E+00
 cg2d: Sum(rhs),rhsMax =  -7.54816795733859E-08  9.40675174533744E+00
 cg2d: Sum(rhs),rhsMax =  -7.55005373775930E-08  9.40441527809810E+00
 cg2d: Sum(rhs),rhsMax =  -7.55200275648349E-08  9.40204373790542E+00
 cg2d: Sum(rhs),rhsMax =  -7.55398446017352E-08  9.39963967991296E+00
 cg2d: Sum(rhs),rhsMax =  -7.55594129486781E-08  9.39720618276624E+00
 cg2d: Sum(rhs),rhsMax =  -7.55797202600661E-08  9.39474678273504E+00
 cg2d: Sum(rhs),rhsMax =  -7.56002052071381E-08  9.39226540565015E+00
 EXTERNAL_FIELDS_LOAD, it=   3600390 : Reading new data, i0,i1=    7    8 (prev=    6    7 )
 DIC_FIELDS_LOAD, it=   3600390 : Reading new data, i0,i1=    7    8 (prev=    6    7 )
 cg2d: Sum(rhs),rhsMax =  -7.56204627805346E-08  9.38976628030644E+00
 cg2d: Sum(rhs),rhsMax =  -7.56415232672225E-08  9.38724775533259E+00
 cg2d: Sum(rhs),rhsMax =  -7.56618732111747E-08  9.38470942901966E+00
 cg2d: Sum(rhs),rhsMax =  -7.56830758064098E-08  9.38215030318780E+00
 cg2d: Sum(rhs),rhsMax =  -7.57043636667731E-08  9.37956883924381E+00
 cg2d: Sum(rhs),rhsMax =  -7.57257581085469E-08  9.37696305631202E+00
 cg2d: Sum(rhs),rhsMax =  -7.57472449208763E-08  9.37433065622099E+00
 cg2d: Sum(rhs),rhsMax =  -7.57689306851717E-08  9.37166915330181E+00
 cg2d: Sum(rhs),rhsMax =  -7.57913838356217E-08  9.36897600473142E+00
 cg2d: Sum(rhs),rhsMax =  -7.58139293566273E-08  9.36624871729081E+00
 cg2d: Sum(rhs),rhsMax =  -7.58368727815650E-08  9.36348495363947E+00
 cg2d: Sum(rhs),rhsMax =  -7.58596883088103E-08  9.36068261643794E+00
 cg2d: Sum(rhs),rhsMax =  -7.58831930625092E-08  9.35783991548456E+00
 cg2d: Sum(rhs),rhsMax =  -7.59071596689864E-08  9.35495541522523E+00
 cg2d: Sum(rhs),rhsMax =  -7.59316307608060E-08  9.35202806312956E+00
 cg2d: Sum(rhs),rhsMax =  -7.59561444851897E-08  9.34905718311665E+00
 cg2d: Sum(rhs),rhsMax =  -7.59807505801291E-08  9.34604244734688E+00
 cg2d: Sum(rhs),rhsMax =  -7.60062519589155E-08  9.34298385173757E+00
 cg2d: Sum(rhs),rhsMax =  -7.60316041237274E-08  9.33988171405705E+00
 cg2d: Sum(rhs),rhsMax =  -7.60576810421298E-08  9.33673667089172E+00
 cg2d: Sum(rhs),rhsMax =  -7.60842198133105E-08  9.33354966433849E+00
 cg2d: Sum(rhs),rhsMax =  -7.61109362201751E-08  9.33032189428481E+00
 cg2d: Sum(rhs),rhsMax =  -7.61379794766981E-08  9.32705473610878E+00
 cg2d: Sum(rhs),rhsMax =  -7.61650014169390E-08  9.32374964223594E+00
 cg2d: Sum(rhs),rhsMax =  -7.61924070502573E-08  9.32040805771324E+00
 cg2d: Sum(rhs),rhsMax =  -7.62202390092170E-08  9.31703133797851E+00
 cg2d: Sum(rhs),rhsMax =  -7.62486536132201E-08  9.31362068532222E+00
 cg2d: Sum(rhs),rhsMax =  -7.62769758466675E-08  9.31017709807696E+00
 cg2d: Sum(rhs),rhsMax =  -7.63053833452432E-08  9.30670132260387E+00
 cg2d: Sum(rhs),rhsMax =  -7.63343095400160E-08  9.30319380786966E+00
 cg2d: Sum(rhs),rhsMax =  -7.63631078370963E-08  9.29965466644313E+00
 cg2d: Sum(rhs),rhsMax =  -7.63924603575106E-08  9.29608366095666E+00
 cg2d: Sum(rhs),rhsMax =  -7.64222036764295E-08  9.29248016366683E+00
 cg2d: Sum(rhs),rhsMax =  -7.64520393659041E-08  9.28884314276847E+00
 cg2d: Sum(rhs),rhsMax =  -7.64822445376012E-08  9.28517117681256E+00
 cg2d: Sum(rhs),rhsMax =  -7.65125633961361E-08  9.28146248933914E+00
 cg2d: Sum(rhs),rhsMax =  -7.65432446314662E-08  9.27771499430064E+00
 cg2d: Sum(rhs),rhsMax =  -7.65746861475236E-08  9.27392634829171E+00
 cg2d: Sum(rhs),rhsMax =  -7.66061276635810E-08  9.27009401586145E+00
 cg2d: Sum(rhs),rhsMax =  -7.66378391858780E-08  9.26621534803516E+00
 cg2d: Sum(rhs),rhsMax =  -7.66705383625776E-08  9.26228766593419E+00
 cg2d: Sum(rhs),rhsMax =  -7.67030741144481E-08  9.25830830078040E+00
 cg2d: Sum(rhs),rhsMax =  -7.67362919873449E-08  9.25427464244149E+00
 cg2d: Sum(rhs),rhsMax =  -7.67699646075926E-08  9.25018420208542E+00
 cg2d: Sum(rhs),rhsMax =  -7.68039853937807E-08  9.24603467114681E+00
 cg2d: Sum(rhs),rhsMax =  -7.68388872529613E-08  9.24182397900772E+00
 cg2d: Sum(rhs),rhsMax =  -7.68742154377833E-08  9.23755034859452E+00
 cg2d: Sum(rhs),rhsMax =  -7.69100552133750E-08  9.23321234366443E+00
 cg2d: Sum(rhs),rhsMax =  -7.69468400108053E-08  9.22880889968266E+00
 cg2d: Sum(rhs),rhsMax =  -7.69835182268253E-08  9.22433933197490E+00
 cg2d: Sum(rhs),rhsMax =  -7.70209354072904E-08  9.21980332836426E+00
 cg2d: Sum(rhs),rhsMax =  -7.70591341847648E-08  9.21520093492414E+00
 cg2d: Sum(rhs),rhsMax =  -7.70982282460864E-08  9.21053254057723E+00
 cg2d: Sum(rhs),rhsMax =  -7.71375923136475E-08  9.20579886154174E+00
 cg2d: Sum(rhs),rhsMax =  -7.71773187580038E-08  9.20100092277316E+00
 cg2d: Sum(rhs),rhsMax =  -7.72178623265063E-08  9.19614003508373E+00
 cg2d: Sum(rhs),rhsMax =  -7.72588606423597E-08  9.19121776376076E+00
 cg2d: Sum(rhs),rhsMax =  -7.73005126575299E-08  9.18623589368687E+00
 cg2d: Sum(rhs),rhsMax =  -7.73430812728293E-08  9.18119640414723E+00
 cg2d: Sum(rhs),rhsMax =  -7.73854154090259E-08  9.17610144209478E+00
 EXTERNAL_FIELDS_LOAD, it=   3600450 : Reading new data, i0,i1=    8    9 (prev=    7    8 )
 DIC_FIELDS_LOAD, it=   3600450 : Reading new data, i0,i1=    8    9 (prev=    7    8 )
 cg2d: Sum(rhs),rhsMax =  -7.74284956150950E-08  9.17095326904567E+00
 cg2d: Sum(rhs),rhsMax =  -7.74719595142415E-08  9.16576412699309E+00
 cg2d: Sum(rhs),rhsMax =  -7.75162902755255E-08  9.16054233368469E+00
 cg2d: Sum(rhs),rhsMax =  -7.75600952351851E-08  9.15529583959941E+00
 cg2d: Sum(rhs),rhsMax =  -7.76045467887343E-08  9.15003201693785E+00
 cg2d: Sum(rhs),rhsMax =  -7.76489557097193E-08  9.14475750599293E+00
 cg2d: Sum(rhs),rhsMax =  -7.76937127966448E-08  9.13947810620331E+00
 cg2d: Sum(rhs),rhsMax =  -7.77385196215619E-08  9.13419871539155E+00
 cg2d: Sum(rhs),rhsMax =  -7.77830635456667E-08  9.12892331307296E+00
 cg2d: Sum(rhs),rhsMax =  -7.78277424728913E-08  9.12365496001899E+00
 cg2d: Sum(rhs),rhsMax =  -7.78721371830216E-08  9.11839580250666E+00
 cg2d: Sum(rhs),rhsMax =  -7.79170150622122E-08  9.11314707861780E+00
 cg2d: Sum(rhs),rhsMax =  -7.79618360979839E-08  9.10790912686148E+00
 cg2d: Sum(rhs),rhsMax =  -7.80063302840972E-08  9.10268140327570E+00
 cg2d: Sum(rhs),rhsMax =  -7.80512792175614E-08  9.09746251290633E+00
 cg2d: Sum(rhs),rhsMax =  -7.80961926238888E-08  9.09225025831423E+00
 cg2d: Sum(rhs),rhsMax =  -7.81409141836775E-08  9.08704170372423E+00
 cg2d: Sum(rhs),rhsMax =  -7.81859057497059E-08  9.08183325412304E+00
 cg2d: Sum(rhs),rhsMax =  -7.82307836288965E-08  9.07662074967284E+00
 cg2d: Sum(rhs),rhsMax =  -7.82759315143267E-08  9.07139957792224E+00
 cg2d: Sum(rhs),rhsMax =  -7.83211078214663E-08  9.06616480379289E+00
 cg2d: Sum(rhs),rhsMax =  -7.83665612402729E-08  9.06091131197731E+00
 cg2d: Sum(rhs),rhsMax =  -7.84124978281397E-08  9.05563395765243E+00
 cg2d: Sum(rhs),rhsMax =  -7.84584273105793E-08  9.05032772066772E+00
 cg2d: Sum(rhs),rhsMax =  -7.85049394380621E-08  9.04498784959721E+00
 cg2d: Sum(rhs),rhsMax =  -7.85514657763997E-08  9.03960999802522E+00
 cg2d: Sum(rhs),rhsMax =  -7.85986244977721E-08  9.03419034933061E+00
 cg2d: Sum(rhs),rhsMax =  -7.86464653401708E-08  9.02872572370695E+00
 cg2d: Sum(rhs),rhsMax =  -7.86944696073988E-08  9.02321366240276E+00
 cg2d: Sum(rhs),rhsMax =  -7.87431417847984E-08  9.01765248043218E+00
 cg2d: Sum(rhs),rhsMax =  -7.87920484413007E-08  9.01204128366352E+00
 cg2d: Sum(rhs),rhsMax =  -7.88417082731030E-08  9.00637994805543E+00
 cg2d: Sum(rhs),rhsMax =  -7.88920360150769E-08  9.00066907167982E+00
 cg2d: Sum(rhs),rhsMax =  -7.89423353353413E-08  8.99490990653884E+00
 cg2d: Sum(rhs),rhsMax =  -7.89935867828717E-08  8.98910428085158E+00
 cg2d: Sum(rhs),rhsMax =  -7.90451721854879E-08  8.98325450032841E+00
 cg2d: Sum(rhs),rhsMax =  -7.90971625974635E-08  8.97736324616216E+00
 cg2d: Sum(rhs),rhsMax =  -7.91497498653371E-08  8.97143347490525E+00
 cg2d: Sum(rhs),rhsMax =  -7.92022945006465E-08  8.96546832283943E+00
 cg2d: Sum(rhs),rhsMax =  -7.92553649375805E-08  8.95947101876645E+00
 cg2d: Sum(rhs),rhsMax =  -7.93088545947285E-08  8.95344480865740E+00
 cg2d: Sum(rhs),rhsMax =  -7.93626284689708E-08  8.94739288844395E+00
 cg2d: Sum(rhs),rhsMax =  -7.94164307649226E-08  8.94131834581199E+00
 cg2d: Sum(rhs),rhsMax =  -7.94707304407893E-08  8.93522409346950E+00
 cg2d: Sum(rhs),rhsMax =  -7.95254209151608E-08  8.92911278517729E+00
 cg2d: Sum(rhs),rhsMax =  -7.95802961306435E-08  8.92298675820892E+00
 cg2d: Sum(rhs),rhsMax =  -7.96350860809980E-08  8.91684802723521E+00
 cg2d: Sum(rhs),rhsMax =  -7.96901744593015E-08  8.91069816303900E+00
 cg2d: Sum(rhs),rhsMax =  -7.97458028500841E-08  8.90453822689960E+00
 cg2d: Sum(rhs),rhsMax =  -7.98008059632593E-08  8.89836886679347E+00
 cg2d: Sum(rhs),rhsMax =  -7.98565338300250E-08  8.89219046877893E+00
 cg2d: Sum(rhs),rhsMax =  -7.99122830130727E-08  8.88600325900496E+00
 cg2d: Sum(rhs),rhsMax =  -7.99680890395393E-08  8.87980729026012E+00
 cg2d: Sum(rhs),rhsMax =  -8.00242716536559E-08  8.87360238895611E+00
 cg2d: Sum(rhs),rhsMax =  -8.00806461143111E-08  8.86738778998965E+00
 cg2d: Sum(rhs),rhsMax =  -8.01370845238125E-08  8.86116239780069E+00
 cg2d: Sum(rhs),rhsMax =  -8.01937503069894E-08  8.85492496573172E+00
 cg2d: Sum(rhs),rhsMax =  -8.02502100327729E-08  8.84867413251653E+00
 cg2d: Sum(rhs),rhsMax =  -8.03073376687280E-08  8.84240642216679E+00
 cg2d: Sum(rhs),rhsMax =  -8.03649982117349E-08  8.83611901543530E+00
 EXTERNAL_FIELDS_LOAD, it=   3600510 : Reading new data, i0,i1=    9   10 (prev=    8    9 )
 DIC_FIELDS_LOAD, it=   3600510 : Reading new data, i0,i1=    9   10 (prev=    8    9 )
 cg2d: Sum(rhs),rhsMax =  -8.04221684802542E-08  8.82980958620308E+00
 cg2d: Sum(rhs),rhsMax =  -8.04801842946290E-08  8.82347769783998E+00
 cg2d: Sum(rhs),rhsMax =  -8.05382569524227E-08  8.81712292682944E+00
 cg2d: Sum(rhs),rhsMax =  -8.05969335715417E-08  8.81074530255714E+00
 cg2d: Sum(rhs),rhsMax =  -8.06557167720712E-08  8.80434529484773E+00
 cg2d: Sum(rhs),rhsMax =  -8.07150399850798E-08  8.79792386244349E+00
 cg2d: Sum(rhs),rhsMax =  -8.07739795050111E-08  8.79148242611313E+00
 cg2d: Sum(rhs),rhsMax =  -8.08336650948149E-08  8.78502288414319E+00
 cg2d: Sum(rhs),rhsMax =  -8.08934359497471E-08  8.77854755016569E+00
 cg2d: Sum(rhs),rhsMax =  -8.09533489132264E-08  8.77205911369779E+00
 cg2d: Sum(rhs),rhsMax =  -8.10136953077745E-08  8.76556055620398E+00
 cg2d: Sum(rhs),rhsMax =  -8.10739990697584E-08  8.75905508378914E+00
 cg2d: Sum(rhs),rhsMax =  -8.11343383588792E-08  8.75254603920936E+00
 cg2d: Sum(rhs),rhsMax =  -8.11948908108207E-08  8.74603681041557E+00
 cg2d: Sum(rhs),rhsMax =  -8.12557274798564E-08  8.73953075362701E+00
 cg2d: Sum(rhs),rhsMax =  -8.13160028201310E-08  8.73303114921060E+00
 cg2d: Sum(rhs),rhsMax =  -8.13765623774998E-08  8.72654114513270E+00
 cg2d: Sum(rhs),rhsMax =  -8.14376406310657E-08  8.72006369581994E+00
 cg2d: Sum(rhs),rhsMax =  -8.14983778241185E-08  8.71360148708201E+00
 cg2d: Sum(rhs),rhsMax =  -8.15589231706326E-08  8.70715691042129E+00
 cg2d: Sum(rhs),rhsMax =   1.59903916596704E-06  8.70073180335976E+00
 cg2d: Sum(rhs),rhsMax =   1.60021662054532E-06  8.69432859416154E+00
 cg2d: Sum(rhs),rhsMax =   1.60139153138061E-06  8.68794859015298E+00
 cg2d: Sum(rhs),rhsMax =   1.60256263370684E-06  8.68159784913248E+00
 cg2d: Sum(rhs),rhsMax =   1.60372920987584E-06  8.67528122426430E+00
 cg2d: Sum(rhs),rhsMax =   1.60489076961312E-06  8.66900204654020E+00
 cg2d: Sum(rhs),rhsMax =   1.60604629684258E-06  8.66276256149186E+00
 cg2d: Sum(rhs),rhsMax =   1.60719569919365E-06  8.65656410916863E+00
 cg2d: Sum(rhs),rhsMax =   1.60833935325400E-06  8.65040714080457E+00
 cg2d: Sum(rhs),rhsMax =   1.60947718796933E-06  8.64429141204724E+00
 cg2d: Sum(rhs),rhsMax =   1.59903916596704E-06  8.70073180335976E+00
 cg2d: Sum(rhs),rhsMax =   1.60021662054532E-06  8.69432859416154E+00
 cg2d: Sum(rhs),rhsMax =   1.60139153138061E-06  8.68794859015298E+00
 cg2d: Sum(rhs),rhsMax =   1.60256263370684E-06  8.68159784913248E+00
 cg2d: Sum(rhs),rhsMax =   1.60372920987584E-06  8.67528122426430E+00
 cg2d: Sum(rhs),rhsMax =   1.60489076961312E-06  8.66900204654020E+00
 cg2d: Sum(rhs),rhsMax =   1.60604629684258E-06  8.66276256149186E+00
 cg2d: Sum(rhs),rhsMax =   1.60719569919365E-06  8.65656410916863E+00
 cg2d: Sum(rhs),rhsMax =   1.60833935325400E-06  8.65040714080457E+00
 cg2d: Sum(rhs),rhsMax =   3.04982691545774E-07  8.64429137055656E+00
 cg2d: Sum(rhs),rhsMax =   1.14976084208962E-12  1.95351190219350E-02
 cg2d: Sum(rhs),rhsMax =   1.59903916596704E-06  8.70073180335976E+00
 cg2d: Sum(rhs),rhsMax =   1.60021662054532E-06  8.69432859416154E+00
 cg2d: Sum(rhs),rhsMax =   1.60139153138061E-06  8.68794859015298E+00
 cg2d: Sum(rhs),rhsMax =   1.60256263370684E-06  8.68159784913248E+00
 cg2d: Sum(rhs),rhsMax =   1.60372920987584E-06  8.67528122426430E+00
 cg2d: Sum(rhs),rhsMax =   1.60489076961312E-06  8.66900204654020E+00
 cg2d: Sum(rhs),rhsMax =   1.60604629684258E-06  8.66276256149186E+00
 cg2d: Sum(rhs),rhsMax =   1.60719569919365E-06  8.65656410916863E+00
 cg2d: Sum(rhs),rhsMax =   2.08490197195488E-06  8.65040742383110E+00
 cg2d: Sum(rhs),rhsMax =   1.35914890453392E-12  1.88714513009055E-02
 cg2d: Sum(rhs),rhsMax =   1.59903916596704E-06  8.70073180335976E+00
 cg2d: Sum(rhs),rhsMax =   1.60021662054532E-06  8.69432859416154E+00
 cg2d: Sum(rhs),rhsMax =   1.60139153138061E-06  8.68794859015298E+00
 cg2d: Sum(rhs),rhsMax =   1.60256263370684E-06  8.68159784913248E+00
 cg2d: Sum(rhs),rhsMax =   1.60372920987584E-06  8.67528122426430E+00
 cg2d: Sum(rhs),rhsMax =   1.60489076961312E-06  8.66900204654020E+00
 cg2d: Sum(rhs),rhsMax =   1.60604629684258E-06  8.66276256149186E+00
 cg2d: Sum(rhs),rhsMax =   1.44543479052572E-06  8.65656388980122E+00
 cg2d: Sum(rhs),rhsMax =   1.45754242009133E-12  1.83985251196835E-02
 cg2d: Sum(rhs),rhsMax =   1.59903916596704E-06  8.70073180335976E+00
 cg2d: Sum(rhs),rhsMax =   1.60021662054532E-06  8.69432859416154E+00
 cg2d: Sum(rhs),rhsMax =   1.60139153138061E-06  8.68794859015298E+00
 cg2d: Sum(rhs),rhsMax =   1.60256263370684E-06  8.68159784913248E+00
 cg2d: Sum(rhs),rhsMax =   1.60372920987584E-06  8.67528122426430E+00
 cg2d: Sum(rhs),rhsMax =   1.60489076961312E-06  8.66900204654020E+00
 cg2d: Sum(rhs),rhsMax =   2.59674617097971E-06  8.66276219769279E+00
 cg2d: Sum(rhs),rhsMax =   1.59546681421929E-12  1.86725012366725E-02
 cg2d: Sum(rhs),rhsMax =   1.59903916596704E-06  8.70073180335976E+00
 cg2d: Sum(rhs),rhsMax =   1.60021662054532E-06  8.69432859416154E+00
 cg2d: Sum(rhs),rhsMax =   1.60139153138061E-06  8.68794859015298E+00
 cg2d: Sum(rhs),rhsMax =   1.60256263370684E-06  8.68159784913248E+00
 cg2d: Sum(rhs),rhsMax =   1.60372920987584E-06  8.67528122426430E+00
 cg2d: Sum(rhs),rhsMax =   2.23787697706257E-06  8.66900171687973E+00
 cg2d: Sum(rhs),rhsMax =   1.71414271665782E-12  1.86552237326380E-02
 cg2d: Sum(rhs),rhsMax =   1.59903916596704E-06  8.70073180335976E+00
 cg2d: Sum(rhs),rhsMax =   1.60021662054532E-06  8.69432859416154E+00
 cg2d: Sum(rhs),rhsMax =   1.60139153138061E-06  8.68794859015298E+00
 cg2d: Sum(rhs),rhsMax =   1.60256263370684E-06  8.68159784913248E+00
 cg2d: Sum(rhs),rhsMax =   1.34581041777437E-06  8.67528114225650E+00
 cg2d: Sum(rhs),rhsMax =   1.75201519958534E-12  1.92124884457806E-02
 cg2d: Sum(rhs),rhsMax =   1.59903916596704E-06  8.70073180335976E+00
 cg2d: Sum(rhs),rhsMax =   1.60021662054532E-06  8.69432859416154E+00
 cg2d: Sum(rhs),rhsMax =   1.60139153138061E-06  8.68794859015298E+00
 cg2d: Sum(rhs),rhsMax =   2.67857767966007E-06  8.68159776132352E+00
 cg2d: Sum(rhs),rhsMax =   1.88410398394012E-12  1.95924827943803E-02
 cg2d: Sum(rhs),rhsMax =   1.59903916596704E-06  8.70073180335976E+00
 cg2d: Sum(rhs),rhsMax =   1.60021662054532E-06  8.69432859416154E+00
 cg2d: Sum(rhs),rhsMax =   2.37314057471849E-06  8.68794824332934E+00
 cg2d: Sum(rhs),rhsMax =   1.98469018997116E-12  1.98020239418735E-02
 cg2d: Sum(rhs),rhsMax =   1.59903916596704E-06  8.70073180335976E+00
 cg2d: Sum(rhs),rhsMax =   2.09890009017499E-06  8.69432825410969E+00
 cg2d: Sum(rhs),rhsMax =   1.97465654938611E-12  2.09709227031917E-02
 cg2d: Sum(rhs),rhsMax =   1.59903937912986E-06  8.70073180416578E+00
 cg2d: Sum(rhs),rhsMax =   2.14653295138589E-12  2.11548829447293E-02
 cg2d: Sum(rhs),rhsMax =  -7.46576347410155E-08  9.50907671569018E+00
 cg2d: Sum(rhs),rhsMax =  -7.46636956705515E-08  9.50827538007810E+00
 cg2d: Sum(rhs),rhsMax =  -7.46696002806857E-08  9.50759038673436E+00
 cg2d: Sum(rhs),rhsMax =  -7.46738635371003E-08  9.50702164848735E+00
 cg2d: Sum(rhs),rhsMax =  -7.46774944104800E-08  9.50656668487862E+00
 cg2d: Sum(rhs),rhsMax =  -7.46800878914655E-08  9.50622069715104E+00
 cg2d: Sum(rhs),rhsMax =  -7.46821626762539E-08  9.50597670066013E+00
 cg2d: Sum(rhs),rhsMax =  -7.46832924392038E-08  9.50582571630982E+00
 cg2d: Sum(rhs),rhsMax =  -7.46840456145037E-08  9.50575700943737E+00
 cg2d: Sum(rhs),rhsMax =  -7.46835624454434E-08  9.50575837107225E+00
 cg2d: Sum(rhs),rhsMax =  -7.46833208609132E-08  9.50581645922263E+00
 cg2d: Sum(rhs),rhsMax =  -7.46821982033907E-08  9.50591711991761E+00
 cg2d: Sum(rhs),rhsMax =  -7.46813526575352E-08  9.50604571310823E+00
 cg2d: Sum(rhs),rhsMax =  -7.46798960449269E-08  9.50618745972881E+00
 cg2d: Sum(rhs),rhsMax =  -7.46791073424902E-08  9.50632780119137E+00
 cg2d: Sum(rhs),rhsMax =  -7.46779846849677E-08  9.50645275158785E+00
 cg2d: Sum(rhs),rhsMax =  -7.46776720461639E-08  9.50654922994562E+00
 cg2d: Sum(rhs),rhsMax =  -7.46771249282574E-08  9.50660536798306E+00
 cg2d: Sum(rhs),rhsMax =  -7.46771320336848E-08  9.50661078108177E+00
 cg2d: Sum(rhs),rhsMax =  -7.46778141547111E-08  9.50655679154863E+00
 cg2d: Sum(rhs),rhsMax =  -7.46784394323186E-08  9.50643658250018E+00
 cg2d: Sum(rhs),rhsMax =  -7.46802726325768E-08  9.50624530490270E+00
 cg2d: Sum(rhs),rhsMax =  -7.46821271491172E-08  9.50598009866199E+00
 cg2d: Sum(rhs),rhsMax =  -7.46850545851885E-08  9.50564005870858E+00
 cg2d: Sum(rhs),rhsMax =  -7.46883372926277E-08  9.50522619443621E+00
 cg2d: Sum(rhs),rhsMax =  -7.46918829008791E-08  9.50474133855045E+00
 cg2d: Sum(rhs),rhsMax =  -7.46962030007126E-08  9.50418990415982E+00
 cg2d: Sum(rhs),rhsMax =  -7.47013260138374E-08  9.50357767429962E+00
 cg2d: Sum(rhs),rhsMax =  -7.47062216532868E-08  9.50291163791579E+00
 cg2d: Sum(rhs),rhsMax =  -7.47126236433360E-08  9.50219980056318E+00
 cg2d: Sum(rhs),rhsMax =  -7.47184074612051E-08  9.50145094748729E+00
 cg2d: Sum(rhs),rhsMax =  -7.47247455024080E-08  9.50067438045622E+00
 cg2d: Sum(rhs),rhsMax =  -7.47313322335685E-08  9.49987965703835E+00
 cg2d: Sum(rhs),rhsMax =  -7.47377768561819E-08  9.49907634096511E+00
 cg2d: Sum(rhs),rhsMax =  -7.47441433190943E-08  9.49827377465974E+00
 cg2d: Sum(rhs),rhsMax =  -7.47505310982888E-08  9.49748086980356E+00
 cg2d: Sum(rhs),rhsMax =  -7.47569046666285E-08  9.49670591827534E+00
 cg2d: Sum(rhs),rhsMax =  -7.47627666441986E-08  9.49595642566026E+00
 cg2d: Sum(rhs),rhsMax =  -7.47686570434780E-08  9.49523896197083E+00
 cg2d: Sum(rhs),rhsMax =  -7.47742205930990E-08  9.49455904201468E+00
 cg2d: Sum(rhs),rhsMax =  -7.47793578170786E-08  9.49392104808525E+00
 cg2d: Sum(rhs),rhsMax =  -7.47843102999468E-08  9.49332815058320E+00
 cg2d: Sum(rhs),rhsMax =  -7.47889217223019E-08  9.49278226320107E+00
 cg2d: Sum(rhs),rhsMax =  -7.47930855027334E-08  9.49228403703651E+00
 cg2d: Sum(rhs),rhsMax =  -7.47963611047453E-08  9.49183288684206E+00
 cg2d: Sum(rhs),rhsMax =  -7.48000417161165E-08  9.49142705076112E+00
 cg2d: Sum(rhs),rhsMax =  -7.48029052033417E-08  9.49106366991647E+00
 cg2d: Sum(rhs),rhsMax =  -7.48058113231309E-08  9.49073888097194E+00
 cg2d: Sum(rhs),rhsMax =  -7.48079642676203E-08  9.49044792286002E+00
 cg2d: Sum(rhs),rhsMax =  -7.48104369563407E-08  9.49018527463466E+00
 EXTERNAL_FIELDS_LOAD, it=   3600330 : Reading new data, i0,i1=    6    7 (prev=    5   10 )
 DIC_FIELDS_LOAD, it=   3600330 : Reading new data, i0,i1=    6    7 (prev=    5    6 )
 cg2d: Sum(rhs),rhsMax =  -7.48125685845480E-08  9.48994481428126E+00
 cg2d: Sum(rhs),rhsMax =  -7.48145367879260E-08  9.48970977028949E+00
 cg2d: Sum(rhs),rhsMax =  -7.48167536812616E-08  9.48946667050908E+00
 cg2d: Sum(rhs),rhsMax =  -7.48186579357935E-08  9.48920195983684E+00
 cg2d: Sum(rhs),rhsMax =  -7.48212727330611E-08  9.48890231838115E+00
 cg2d: Sum(rhs),rhsMax =  -7.48240864822947E-08  9.48855490239494E+00
 cg2d: Sum(rhs),rhsMax =  -7.48277528828112E-08  9.48814760448955E+00
 cg2d: Sum(rhs),rhsMax =  -7.48317106058494E-08  9.48766929469714E+00
 cg2d: Sum(rhs),rhsMax =  -7.48361301816658E-08  9.48711003726197E+00
 cg2d: Sum(rhs),rhsMax =  -7.48412745110727E-08  9.48646127184076E+00
 cg2d: Sum(rhs),rhsMax =  -7.48473496514634E-08  9.48571598443359E+00
 cg2d: Sum(rhs),rhsMax =  -7.48540713857437E-08  9.48486884714226E+00
 cg2d: Sum(rhs),rhsMax =  -7.48618091961362E-08  9.48391631089758E+00
 cg2d: Sum(rhs),rhsMax =  -7.48703143926832E-08  9.48285664384895E+00
 cg2d: Sum(rhs),rhsMax =  -7.48790469629057E-08  9.48168991622247E+00
 cg2d: Sum(rhs),rhsMax =  -7.48895487845402E-08  9.48041794354397E+00
 cg2d: Sum(rhs),rhsMax =  -7.49003561395511E-08  9.47904418707887E+00
 cg2d: Sum(rhs),rhsMax =  -7.49121227272553E-08  9.47757361133926E+00
 cg2d: Sum(rhs),rhsMax =  -7.49249196019264E-08  9.47601250495736E+00
 cg2d: Sum(rhs),rhsMax =  -7.49377875308710E-08  9.47436827146146E+00
 cg2d: Sum(rhs),rhsMax =  -7.49514157405429E-08  9.47264919973884E+00
 cg2d: Sum(rhs),rhsMax =  -7.49656123844034E-08  9.47086422427234E+00
 cg2d: Sum(rhs),rhsMax =  -7.49802140376232E-08  9.46902267691356E+00
 cg2d: Sum(rhs),rhsMax =  -7.49953059653308E-08  9.46713403481286E+00
 cg2d: Sum(rhs),rhsMax =  -7.50105257907308E-08  9.46520767024855E+00
 cg2d: Sum(rhs),rhsMax =  -7.50263424720288E-08  9.46325259778073E+00
 cg2d: Sum(rhs),rhsMax =  -7.50422373130277E-08  9.46127726524814E+00
 cg2d: Sum(rhs),rhsMax =  -7.50577768826588E-08  9.45928937477588E+00
 cg2d: Sum(rhs),rhsMax =  -7.50738990973332E-08  9.45729571583441E+00
 cg2d: Sum(rhs),rhsMax =  -7.50896163026482E-08  9.45530206338839E+00
 cg2d: Sum(rhs),rhsMax =  -7.51056461467670E-08  9.45331309804778E+00
 cg2d: Sum(rhs),rhsMax =  -7.51212709815263E-08  9.45133234916556E+00
 cg2d: Sum(rhs),rhsMax =  -7.51373789853460E-08  9.44936217148271E+00
 cg2d: Sum(rhs),rhsMax =  -7.51527906572846E-08  9.44740375781686E+00
 cg2d: Sum(rhs),rhsMax =  -7.51685931277279E-08  9.44545718748645E+00
 cg2d: Sum(rhs),rhsMax =  -7.51841966462052E-08  9.44352151007986E+00
 cg2d: Sum(rhs),rhsMax =  -7.51994591041694E-08  9.44159486329961E+00
 cg2d: Sum(rhs),rhsMax =  -7.52147784055524E-08  9.43967460290015E+00
 cg2d: Sum(rhs),rhsMax =  -7.52305737705683E-08  9.43775744343237E+00
 cg2d: Sum(rhs),rhsMax =  -7.52457793851136E-08  9.43583960877673E+00
 cg2d: Sum(rhs),rhsMax =  -7.52614752741465E-08  9.43391698185443E+00
 cg2d: Sum(rhs),rhsMax =  -7.52768585243757E-08  9.43198524752366E+00
 cg2d: Sum(rhs),rhsMax =  -7.52925899405454E-08  9.43004003060471E+00
 cg2d: Sum(rhs),rhsMax =  -7.53084705706897E-08  9.42807701983885E+00
 cg2d: Sum(rhs),rhsMax =  -7.53246993667744E-08  9.42609207475689E+00
 cg2d: Sum(rhs),rhsMax =  -7.53408997411498E-08  9.42408132282525E+00
 cg2d: Sum(rhs),rhsMax =  -7.53572138023628E-08  9.42204124662806E+00
 cg2d: Sum(rhs),rhsMax =  -7.53741673520381E-08  9.41996876781019E+00
 cg2d: Sum(rhs),rhsMax =  -7.53910782691491E-08  9.41786131641806E+00
 cg2d: Sum(rhs),rhsMax =  -7.54086713072866E-08  9.41571688244791E+00
 cg2d: Sum(rhs),rhsMax =  -7.54266125113645E-08  9.41353407021840E+00
 cg2d: Sum(rhs),rhsMax =  -7.54444755557415E-08  9.41131216516102E+00
 cg2d: Sum(rhs),rhsMax =  -7.54630704591364E-08  9.40905115996980E+00
 cg2d: Sum(rhs),rhsMax =  -7.54816795733859E-08  9.40675174533744E+00
 cg2d: Sum(rhs),rhsMax =  -7.55005373775930E-08  9.40441527809810E+00
 cg2d: Sum(rhs),rhsMax =  -7.55200275648349E-08  9.40204373790542E+00
 cg2d: Sum(rhs),rhsMax =  -7.55398446017352E-08  9.39963967991296E+00
 cg2d: Sum(rhs),rhsMax =  -7.55594129486781E-08  9.39720618276624E+00
 cg2d: Sum(rhs),rhsMax =  -7.55797202600661E-08  9.39474678273504E+00
 cg2d: Sum(rhs),rhsMax =  -7.56002052071381E-08  9.39226540565015E+00
 EXTERNAL_FIELDS_LOAD, it=   3600390 : Reading new data, i0,i1=    7    8 (prev=    6    7 )
 DIC_FIELDS_LOAD, it=   3600390 : Reading new data, i0,i1=    7    8 (prev=    6    7 )
 cg2d: Sum(rhs),rhsMax =  -7.56204627805346E-08  9.38976628030644E+00
 cg2d: Sum(rhs),rhsMax =  -7.56415232672225E-08  9.38724775533259E+00
 cg2d: Sum(rhs),rhsMax =  -7.56618732111747E-08  9.38470942901966E+00
 cg2d: Sum(rhs),rhsMax =  -7.56830758064098E-08  9.38215030318780E+00
 cg2d: Sum(rhs),rhsMax =  -7.57043636667731E-08  9.37956883924381E+00
 cg2d: Sum(rhs),rhsMax =  -7.57257581085469E-08  9.37696305631202E+00
 cg2d: Sum(rhs),rhsMax =  -7.57472449208763E-08  9.37433065622099E+00
 cg2d: Sum(rhs),rhsMax =  -7.57689306851717E-08  9.37166915330181E+00
 cg2d: Sum(rhs),rhsMax =  -7.57913838356217E-08  9.36897600473142E+00
 cg2d: Sum(rhs),rhsMax =  -7.58139293566273E-08  9.36624871729081E+00
 cg2d: Sum(rhs),rhsMax =  -7.58368727815650E-08  9.36348495363947E+00
 cg2d: Sum(rhs),rhsMax =  -7.58596883088103E-08  9.36068261643794E+00
 cg2d: Sum(rhs),rhsMax =  -7.58831930625092E-08  9.35783991548456E+00
 cg2d: Sum(rhs),rhsMax =  -7.59071596689864E-08  9.35495541522523E+00
 cg2d: Sum(rhs),rhsMax =  -7.59316307608060E-08  9.35202806312956E+00
 cg2d: Sum(rhs),rhsMax =  -7.59561444851897E-08  9.34905718311665E+00
 cg2d: Sum(rhs),rhsMax =  -7.59807505801291E-08  9.34604244734688E+00
 cg2d: Sum(rhs),rhsMax =  -7.60062519589155E-08  9.34298385173757E+00
 cg2d: Sum(rhs),rhsMax =  -7.60316041237274E-08  9.33988171405705E+00
 cg2d: Sum(rhs),rhsMax =  -7.60576810421298E-08  9.33673667089172E+00
 cg2d: Sum(rhs),rhsMax =  -7.60842198133105E-08  9.33354966433849E+00
 cg2d: Sum(rhs),rhsMax =  -7.61109362201751E-08  9.33032189428481E+00
 cg2d: Sum(rhs),rhsMax =  -7.61379794766981E-08  9.32705473610878E+00
 cg2d: Sum(rhs),rhsMax =  -7.61650014169390E-08  9.32374964223594E+00
 cg2d: Sum(rhs),rhsMax =  -7.61924070502573E-08  9.32040805771324E+00
 cg2d: Sum(rhs),rhsMax =  -7.62202390092170E-08  9.31703133797851E+00
 cg2d: Sum(rhs),rhsMax =  -7.62486536132201E-08  9.31362068532222E+00
 cg2d: Sum(rhs),rhsMax =  -7.62769758466675E-08  9.31017709807696E+00
 cg2d: Sum(rhs),rhsMax =  -7.63053833452432E-08  9.30670132260387E+00
 cg2d: Sum(rhs),rhsMax =  -7.63343095400160E-08  9.30319380786966E+00
 cg2d: Sum(rhs),rhsMax =  -7.63631078370963E-08  9.29965466644313E+00
 cg2d: Sum(rhs),rhsMax =  -7.63924603575106E-08  9.29608366095666E+00
 cg2d: Sum(rhs),rhsMax =  -7.64222036764295E-08  9.29248016366683E+00
 cg2d: Sum(rhs),rhsMax =  -7.64520393659041E-08  9.28884314276847E+00
 cg2d: Sum(rhs),rhsMax =  -7.64822445376012E-08  9.28517117681256E+00
 cg2d: Sum(rhs),rhsMax =  -7.65125633961361E-08  9.28146248933914E+00
 cg2d: Sum(rhs),rhsMax =  -7.65432446314662E-08  9.27771499430064E+00
 cg2d: Sum(rhs),rhsMax =  -7.65746861475236E-08  9.27392634829171E+00
 cg2d: Sum(rhs),rhsMax =  -7.66061276635810E-08  9.27009401586145E+00
 cg2d: Sum(rhs),rhsMax =  -7.66378391858780E-08  9.26621534803516E+00
 cg2d: Sum(rhs),rhsMax =  -7.66705383625776E-08  9.26228766593419E+00
 cg2d: Sum(rhs),rhsMax =  -7.67030741144481E-08  9.25830830078040E+00
 cg2d: Sum(rhs),rhsMax =  -7.67362919873449E-08  9.25427464244149E+00
 cg2d: Sum(rhs),rhsMax =  -7.67699646075926E-08  9.25018420208542E+00
 cg2d: Sum(rhs),rhsMax =  -7.68039853937807E-08  9.24603467114681E+00
 cg2d: Sum(rhs),rhsMax =  -7.68388872529613E-08  9.24182397900772E+00
 cg2d: Sum(rhs),rhsMax =  -7.68742154377833E-08  9.23755034859452E+00
 cg2d: Sum(rhs),rhsMax =  -7.69100552133750E-08  9.23321234366443E+00
 cg2d: Sum(rhs),rhsMax =  -7.69468400108053E-08  9.22880889968266E+00
 cg2d: Sum(rhs),rhsMax =  -7.69835182268253E-08  9.22433933197490E+00
 cg2d: Sum(rhs),rhsMax =  -7.70209354072904E-08  9.21980332836426E+00
 cg2d: Sum(rhs),rhsMax =  -7.70591341847648E-08  9.21520093492414E+00
 cg2d: Sum(rhs),rhsMax =  -7.70982282460864E-08  9.21053254057723E+00
 cg2d: Sum(rhs),rhsMax =  -7.71375923136475E-08  9.20579886154174E+00
 cg2d: Sum(rhs),rhsMax =  -7.71773187580038E-08  9.20100092277316E+00
 cg2d: Sum(rhs),rhsMax =  -7.72178623265063E-08  9.19614003508373E+00
 cg2d: Sum(rhs),rhsMax =  -7.72588606423597E-08  9.19121776376076E+00
 cg2d: Sum(rhs),rhsMax =  -7.73005126575299E-08  9.18623589368687E+00
 cg2d: Sum(rhs),rhsMax =  -7.73430812728293E-08  9.18119640414723E+00
 cg2d: Sum(rhs),rhsMax =  -7.73854154090259E-08  9.17610144209478E+00
 EXTERNAL_FIELDS_LOAD, it=   3600450 : Reading new data, i0,i1=    8    9 (prev=    7    8 )
 DIC_FIELDS_LOAD, it=   3600450 : Reading new data, i0,i1=    8    9 (prev=    7    8 )
 cg2d: Sum(rhs),rhsMax =  -7.74284956150950E-08  9.17095326904567E+00
 cg2d: Sum(rhs),rhsMax =  -7.74719595142415E-08  9.16576412699309E+00
 cg2d: Sum(rhs),rhsMax =  -7.75162902755255E-08  9.16054233368469E+00
 cg2d: Sum(rhs),rhsMax =  -7.75600952351851E-08  9.15529583959941E+00
 cg2d: Sum(rhs),rhsMax =  -7.76045467887343E-08  9.15003201693785E+00
 cg2d: Sum(rhs),rhsMax =  -7.76489557097193E-08  9.14475750599293E+00
 cg2d: Sum(rhs),rhsMax =  -7.76937127966448E-08  9.13947810620331E+00
 cg2d: Sum(rhs),rhsMax =  -7.77385196215619E-08  9.13419871539155E+00
 cg2d: Sum(rhs),rhsMax =  -7.77830635456667E-08  9.12892331307296E+00
 cg2d: Sum(rhs),rhsMax =  -7.78277424728913E-08  9.12365496001899E+00
 cg2d: Sum(rhs),rhsMax =  -7.78721371830216E-08  9.11839580250666E+00
 cg2d: Sum(rhs),rhsMax =  -7.79170150622122E-08  9.11314707861780E+00
 cg2d: Sum(rhs),rhsMax =  -7.79618360979839E-08  9.10790912686148E+00
 cg2d: Sum(rhs),rhsMax =  -7.80063302840972E-08  9.10268140327570E+00
 cg2d: Sum(rhs),rhsMax =  -7.80512792175614E-08  9.09746251290633E+00
 cg2d: Sum(rhs),rhsMax =  -7.80961926238888E-08  9.09225025831423E+00
 cg2d: Sum(rhs),rhsMax =  -7.81409141836775E-08  9.08704170372423E+00
 cg2d: Sum(rhs),rhsMax =  -7.81859057497059E-08  9.08183325412304E+00
 cg2d: Sum(rhs),rhsMax =  -7.82307836288965E-08  9.07662074967284E+00
 cg2d: Sum(rhs),rhsMax =  -7.82759315143267E-08  9.07139957792224E+00
 cg2d: Sum(rhs),rhsMax =  -7.83211078214663E-08  9.06616480379289E+00
 cg2d: Sum(rhs),rhsMax =  -7.83665612402729E-08  9.06091131197731E+00
 cg2d: Sum(rhs),rhsMax =  -7.84124978281397E-08  9.05563395765243E+00
 cg2d: Sum(rhs),rhsMax =  -7.84584273105793E-08  9.05032772066772E+00
 cg2d: Sum(rhs),rhsMax =  -7.85049394380621E-08  9.04498784959721E+00
 cg2d: Sum(rhs),rhsMax =  -7.85514657763997E-08  9.03960999802522E+00
 cg2d: Sum(rhs),rhsMax =  -7.85986244977721E-08  9.03419034933061E+00
 cg2d: Sum(rhs),rhsMax =  -7.86464653401708E-08  9.02872572370695E+00
 cg2d: Sum(rhs),rhsMax =  -7.86944696073988E-08  9.02321366240276E+00
 cg2d: Sum(rhs),rhsMax =  -7.87431417847984E-08  9.01765248043218E+00
 cg2d: Sum(rhs),rhsMax =  -7.87920484413007E-08  9.01204128366352E+00
 cg2d: Sum(rhs),rhsMax =  -7.88417082731030E-08  9.00637994805543E+00
 cg2d: Sum(rhs),rhsMax =  -7.88920360150769E-08  9.00066907167982E+00
 cg2d: Sum(rhs),rhsMax =  -7.89423353353413E-08  8.99490990653884E+00
 cg2d: Sum(rhs),rhsMax =  -7.89935867828717E-08  8.98910428085158E+00
 cg2d: Sum(rhs),rhsMax =  -7.90451721854879E-08  8.98325450032841E+00
 cg2d: Sum(rhs),rhsMax =  -7.90971625974635E-08  8.97736324616216E+00
 cg2d: Sum(rhs),rhsMax =  -7.91497498653371E-08  8.97143347490525E+00
 cg2d: Sum(rhs),rhsMax =  -7.92022945006465E-08  8.96546832283943E+00
 cg2d: Sum(rhs),rhsMax =  -7.92553649375805E-08  8.95947101876645E+00
 cg2d: Sum(rhs),rhsMax =  -7.93088545947285E-08  8.95344480865740E+00
 cg2d: Sum(rhs),rhsMax =  -7.93626284689708E-08  8.94739288844395E+00
 cg2d: Sum(rhs),rhsMax =  -7.94164307649226E-08  8.94131834581199E+00
 cg2d: Sum(rhs),rhsMax =  -7.94707304407893E-08  8.93522409346950E+00
 cg2d: Sum(rhs),rhsMax =  -7.95254209151608E-08  8.92911278517729E+00
 cg2d: Sum(rhs),rhsMax =  -7.95802961306435E-08  8.92298675820892E+00
 cg2d: Sum(rhs),rhsMax =  -7.96350860809980E-08  8.91684802723521E+00
 cg2d: Sum(rhs),rhsMax =  -7.96901744593015E-08  8.91069816303900E+00
 cg2d: Sum(rhs),rhsMax =  -7.97458028500841E-08  8.90453822689960E+00
 cg2d: Sum(rhs),rhsMax =  -7.98008059632593E-08  8.89836886679347E+00
 cg2d: Sum(rhs),rhsMax =  -7.98565338300250E-08  8.89219046877893E+00
 cg2d: Sum(rhs),rhsMax =  -7.99122830130727E-08  8.88600325900496E+00
 cg2d: Sum(rhs),rhsMax =  -7.99680890395393E-08  8.87980729026012E+00
 cg2d: Sum(rhs),rhsMax =  -8.00242716536559E-08  8.87360238895611E+00
 cg2d: Sum(rhs),rhsMax =  -8.00806461143111E-08  8.86738778998965E+00
 cg2d: Sum(rhs),rhsMax =  -8.01370845238125E-08  8.86116239780069E+00
 cg2d: Sum(rhs),rhsMax =  -8.01937503069894E-08  8.85492496573172E+00
 cg2d: Sum(rhs),rhsMax =  -8.02502100327729E-08  8.84867413251653E+00
 cg2d: Sum(rhs),rhsMax =  -8.03073376687280E-08  8.84240642216679E+00
 cg2d: Sum(rhs),rhsMax =  -8.03649982117349E-08  8.83611901543530E+00
 EXTERNAL_FIELDS_LOAD, it=   3600510 : Reading new data, i0,i1=    9   10 (prev=    8    9 )
 DIC_FIELDS_LOAD, it=   3600510 : Reading new data, i0,i1=    9   10 (prev=    8    9 )
 cg2d: Sum(rhs),rhsMax =  -8.04221684802542E-08  8.82980958620308E+00
 cg2d: Sum(rhs),rhsMax =  -8.04801842946290E-08  8.82347769783998E+00
 cg2d: Sum(rhs),rhsMax =  -8.05382569524227E-08  8.81712292682944E+00
 cg2d: Sum(rhs),rhsMax =  -8.05969335715417E-08  8.81074530255714E+00
 cg2d: Sum(rhs),rhsMax =  -8.06557167720712E-08  8.80434529484773E+00
 cg2d: Sum(rhs),rhsMax =  -8.07150399850798E-08  8.79792386244349E+00
 cg2d: Sum(rhs),rhsMax =  -8.07739795050111E-08  8.79148242611313E+00
 cg2d: Sum(rhs),rhsMax =  -8.08336650948149E-08  8.78502288414319E+00
 cg2d: Sum(rhs),rhsMax =  -8.08934359497471E-08  8.77854755016569E+00
 cg2d: Sum(rhs),rhsMax =  -8.09533489132264E-08  8.77205911369779E+00
 cg2d: Sum(rhs),rhsMax =  -7.31106624130007E-08  8.76556037038209E+00
 cg2d: Sum(rhs),rhsMax =  -7.31654026253636E-08  8.75905492814992E+00
 cg2d: Sum(rhs),rhsMax =  -7.32200504671709E-08  8.75254595321728E+00
 cg2d: Sum(rhs),rhsMax =  -7.32746556764141E-08  8.74603683477519E+00
 cg2d: Sum(rhs),rhsMax =  -7.33294527321959E-08  8.73953092060090E+00
 cg2d: Sum(rhs),rhsMax =  -7.33841858391315E-08  8.73303147979786E+00
 cg2d: Sum(rhs),rhsMax =  -7.34387555212379E-08  8.72654164940224E+00
 cg2d: Sum(rhs),rhsMax =  -7.34933323087716E-08  8.72006437340021E+00
 cg2d: Sum(rhs),rhsMax =  -7.35485627956223E-08  8.71360232748115E+00
 cg2d: Sum(rhs),rhsMax =  -7.36027914172155E-08  8.70715789407221E+00
 cg2d: Sum(rhs),rhsMax =  -7.31106624130007E-08  8.76556037038209E+00
 cg2d: Sum(rhs),rhsMax =  -7.31654026253636E-08  8.75905492814992E+00
 cg2d: Sum(rhs),rhsMax =  -7.32200504671709E-08  8.75254595321728E+00
 cg2d: Sum(rhs),rhsMax =  -7.32746556764141E-08  8.74603683477519E+00
 cg2d: Sum(rhs),rhsMax =  -7.33294527321959E-08  8.73953092060090E+00
 cg2d: Sum(rhs),rhsMax =  -7.33841858391315E-08  8.73303147979786E+00
 cg2d: Sum(rhs),rhsMax =  -7.34387555212379E-08  8.72654164940224E+00
 cg2d: Sum(rhs),rhsMax =  -7.34933323087716E-08  8.72006437340021E+00
 cg2d: Sum(rhs),rhsMax =  -7.35485627956223E-08  8.71360232748115E+00
 cg2d: Sum(rhs),rhsMax =   3.19877713650385E-07  8.70715779990559E+00
 cg2d: Sum(rhs),rhsMax =   2.36162478461921E-12  2.09844446451681E-02
 cg2d: Sum(rhs),rhsMax =  -7.31106624130007E-08  8.76556037038209E+00
 cg2d: Sum(rhs),rhsMax =  -7.31654026253636E-08  8.75905492814992E+00
 cg2d: Sum(rhs),rhsMax =  -7.32200504671709E-08  8.75254595321728E+00
 cg2d: Sum(rhs),rhsMax =  -7.32746556764141E-08  8.74603683477519E+00
 cg2d: Sum(rhs),rhsMax =  -7.33294527321959E-08  8.73953092060090E+00
 cg2d: Sum(rhs),rhsMax =  -7.33841858391315E-08  8.73303147979786E+00
 cg2d: Sum(rhs),rhsMax =  -7.34387555212379E-08  8.72654164940224E+00
 cg2d: Sum(rhs),rhsMax =  -7.34933323087716E-08  8.72006437340021E+00
 cg2d: Sum(rhs),rhsMax =  -2.12144279032600E-07  8.71360240252736E+00
 cg2d: Sum(rhs),rhsMax =   2.46200282383313E-12  2.08209339384861E-02
 cg2d: Sum(rhs),rhsMax =  -7.31106624130007E-08  8.76556037038209E+00
 cg2d: Sum(rhs),rhsMax =  -7.31654026253636E-08  8.75905492814992E+00
 cg2d: Sum(rhs),rhsMax =  -7.32200504671709E-08  8.75254595321728E+00
 cg2d: Sum(rhs),rhsMax =  -7.32746556764141E-08  8.74603683477519E+00
 cg2d: Sum(rhs),rhsMax =  -7.33294527321959E-08  8.73953092060090E+00
 cg2d: Sum(rhs),rhsMax =  -7.33841858391315E-08  8.73303147979786E+00
 cg2d: Sum(rhs),rhsMax =  -7.34387555212379E-08  8.72654164940224E+00
 cg2d: Sum(rhs),rhsMax =   6.50280028935413E-07  8.72006449956501E+00
 cg2d: Sum(rhs),rhsMax =   2.60838572962996E-12  2.07187780182241E-02
 cg2d: Sum(rhs),rhsMax =  -7.31106624130007E-08  8.76556037038209E+00
 cg2d: Sum(rhs),rhsMax =  -7.31654026253636E-08  8.75905492814992E+00
 cg2d: Sum(rhs),rhsMax =  -7.32200504671709E-08  8.75254595321728E+00
 cg2d: Sum(rhs),rhsMax =  -7.32746556764141E-08  8.74603683477519E+00
 cg2d: Sum(rhs),rhsMax =  -7.33294527321959E-08  8.73953092060090E+00
 cg2d: Sum(rhs),rhsMax =  -7.33841858391315E-08  8.73303147979786E+00
 cg2d: Sum(rhs),rhsMax =  -9.91504904845897E-07  8.72654131274324E+00
 cg2d: Sum(rhs),rhsMax =   2.76866030102241E-12  2.11180938832736E-02
 cg2d: Sum(rhs),rhsMax =  -7.31106624130007E-08  8.76556037038209E+00
 cg2d: Sum(rhs),rhsMax =  -7.31654026253636E-08  8.75905492814992E+00
 cg2d: Sum(rhs),rhsMax =  -7.32200504671709E-08  8.75254595321728E+00
 cg2d: Sum(rhs),rhsMax =  -7.32746556764141E-08  8.74603683477519E+00
 cg2d: Sum(rhs),rhsMax =  -7.33294527321959E-08  8.73953092060090E+00
 cg2d: Sum(rhs),rhsMax =   8.32866859923342E-07  8.73303152150837E+00
 cg2d: Sum(rhs),rhsMax =   2.71066502577355E-12  2.25936691191522E-02
 cg2d: Sum(rhs),rhsMax =  -7.31106624130007E-08  8.76556037038209E+00
 cg2d: Sum(rhs),rhsMax =  -7.31654026253636E-08  8.75905492814992E+00
 cg2d: Sum(rhs),rhsMax =  -7.32200504671709E-08  8.75254595321728E+00
 cg2d: Sum(rhs),rhsMax =  -7.32746556764141E-08  8.74603683477519E+00
 cg2d: Sum(rhs),rhsMax =  -1.17151756739986E-06  8.73953069221533E+00
 cg2d: Sum(rhs),rhsMax =   2.79998246810464E-12  2.28080310478972E-02
 cg2d: Sum(rhs),rhsMax =  -7.31106624130007E-08  8.76556037038209E+00
 cg2d: Sum(rhs),rhsMax =  -7.31654026253636E-08  8.75905492814992E+00
 cg2d: Sum(rhs),rhsMax =  -7.32200504671709E-08  8.75254595321728E+00
 cg2d: Sum(rhs),rhsMax =  -2.52201594719281E-07  8.74603660553567E+00
 cg2d: Sum(rhs),rhsMax =   2.97820101913260E-12  2.22633951411137E-02
 cg2d: Sum(rhs),rhsMax =  -7.31106624130007E-08  8.76556037038209E+00
 cg2d: Sum(rhs),rhsMax =  -7.31654026253636E-08  8.75905492814992E+00
 cg2d: Sum(rhs),rhsMax =  -1.31907412281862E-06  8.75254622884791E+00
 cg2d: Sum(rhs),rhsMax =   3.25327265127129E-12  2.16237861150765E-02
 cg2d: Sum(rhs),rhsMax =  -7.31106624130007E-08  8.76556037038209E+00
 cg2d: Sum(rhs),rhsMax =  -6.03359019635263E-07  8.75905495641059E+00
 cg2d: Sum(rhs),rhsMax =   3.41832118166963E-12  2.10925309341962E-02
 cg2d: Sum(rhs),rhsMax =  -7.31108613649667E-08  8.76556037037097E+00
 cg2d: Sum(rhs),rhsMax =   3.63525876068138E-12  2.08081618607621E-02
 cg2d: Sum(rhs),rhsMax =  -7.46576347410155E-08  9.50907671569018E+00
 cg2d: Sum(rhs),rhsMax =  -7.46636956705515E-08  9.50827538007810E+00
 cg2d: Sum(rhs),rhsMax =  -7.46696002806857E-08  9.50759038673436E+00
 cg2d: Sum(rhs),rhsMax =  -7.46738635371003E-08  9.50702164848735E+00
 cg2d: Sum(rhs),rhsMax =  -7.46774944104800E-08  9.50656668487862E+00
 cg2d: Sum(rhs),rhsMax =  -7.46800878914655E-08  9.50622069715104E+00
 cg2d: Sum(rhs),rhsMax =  -7.46821626762539E-08  9.50597670066013E+00
 cg2d: Sum(rhs),rhsMax =  -7.46832924392038E-08  9.50582571630982E+00
 cg2d: Sum(rhs),rhsMax =  -7.46840456145037E-08  9.50575700943737E+00
 cg2d: Sum(rhs),rhsMax =  -7.46835624454434E-08  9.50575837107225E+00
 cg2d: Sum(rhs),rhsMax =  -7.46833208609132E-08  9.50581645922263E+00
 cg2d: Sum(rhs),rhsMax =  -7.46821982033907E-08  9.50591711991761E+00
 cg2d: Sum(rhs),rhsMax =  -7.46813526575352E-08  9.50604571310823E+00
 cg2d: Sum(rhs),rhsMax =  -7.46798960449269E-08  9.50618745972881E+00
 cg2d: Sum(rhs),rhsMax =  -7.46791073424902E-08  9.50632780119137E+00
 cg2d: Sum(rhs),rhsMax =  -7.46779846849677E-08  9.50645275158785E+00
 cg2d: Sum(rhs),rhsMax =  -7.46776720461639E-08  9.50654922994562E+00
 cg2d: Sum(rhs),rhsMax =  -7.46771249282574E-08  9.50660536798306E+00
 cg2d: Sum(rhs),rhsMax =  -7.46771320336848E-08  9.50661078108177E+00
 cg2d: Sum(rhs),rhsMax =  -7.46778141547111E-08  9.50655679154863E+00
 cg2d: Sum(rhs),rhsMax =  -7.46784394323186E-08  9.50643658250018E+00
 cg2d: Sum(rhs),rhsMax =  -7.46802726325768E-08  9.50624530490270E+00
 cg2d: Sum(rhs),rhsMax =  -7.46821271491172E-08  9.50598009866199E+00
 cg2d: Sum(rhs),rhsMax =  -7.46850545851885E-08  9.50564005870858E+00
 cg2d: Sum(rhs),rhsMax =  -7.46883372926277E-08  9.50522619443621E+00
 cg2d: Sum(rhs),rhsMax =  -7.46918829008791E-08  9.50474133855045E+00
 cg2d: Sum(rhs),rhsMax =  -7.46962030007126E-08  9.50418990415982E+00
 cg2d: Sum(rhs),rhsMax =  -7.47013260138374E-08  9.50357767429962E+00
 cg2d: Sum(rhs),rhsMax =  -7.47062216532868E-08  9.50291163791579E+00
 cg2d: Sum(rhs),rhsMax =  -7.47126236433360E-08  9.50219980056318E+00
 cg2d: Sum(rhs),rhsMax =  -7.47184074612051E-08  9.50145094748729E+00
 cg2d: Sum(rhs),rhsMax =  -7.47247455024080E-08  9.50067438045622E+00
 cg2d: Sum(rhs),rhsMax =  -7.47313322335685E-08  9.49987965703835E+00
 cg2d: Sum(rhs),rhsMax =  -7.47377768561819E-08  9.49907634096511E+00
 cg2d: Sum(rhs),rhsMax =  -7.47441433190943E-08  9.49827377465974E+00
 cg2d: Sum(rhs),rhsMax =  -7.47505310982888E-08  9.49748086980356E+00
 cg2d: Sum(rhs),rhsMax =  -7.47569046666285E-08  9.49670591827534E+00
 cg2d: Sum(rhs),rhsMax =  -7.47627666441986E-08  9.49595642566026E+00
 cg2d: Sum(rhs),rhsMax =  -7.47686570434780E-08  9.49523896197083E+00
 cg2d: Sum(rhs),rhsMax =  -7.47742205930990E-08  9.49455904201468E+00
 cg2d: Sum(rhs),rhsMax =  -7.47793578170786E-08  9.49392104808525E+00
 cg2d: Sum(rhs),rhsMax =  -7.47843102999468E-08  9.49332815058320E+00
 cg2d: Sum(rhs),rhsMax =  -7.47889217223019E-08  9.49278226320107E+00
 cg2d: Sum(rhs),rhsMax =  -7.47930855027334E-08  9.49228403703651E+00
 cg2d: Sum(rhs),rhsMax =  -7.47963611047453E-08  9.49183288684206E+00
 cg2d: Sum(rhs),rhsMax =  -7.48000417161165E-08  9.49142705076112E+00
 cg2d: Sum(rhs),rhsMax =  -7.48029052033417E-08  9.49106366991647E+00
 cg2d: Sum(rhs),rhsMax =  -7.48058113231309E-08  9.49073888097194E+00
 cg2d: Sum(rhs),rhsMax =  -7.48079642676203E-08  9.49044792286002E+00
 cg2d: Sum(rhs),rhsMax =  -7.48104369563407E-08  9.49018527463466E+00
 EXTERNAL_FIELDS_LOAD, it=   3600330 : Reading new data, i0,i1=    6    7 (prev=    5   10 )
 DIC_FIELDS_LOAD, it=   3600330 : Reading new data, i0,i1=    6    7 (prev=    5    6 )
 cg2d: Sum(rhs),rhsMax =  -7.48125685845480E-08  9.48994481428126E+00
 cg2d: Sum(rhs),rhsMax =  -7.48145367879260E-08  9.48970977028949E+00
 cg2d: Sum(rhs),rhsMax =  -7.48167536812616E-08  9.48946667050908E+00
 cg2d: Sum(rhs),rhsMax =  -7.48186579357935E-08  9.48920195983684E+00
 cg2d: Sum(rhs),rhsMax =  -7.48212727330611E-08  9.48890231838115E+00
 cg2d: Sum(rhs),rhsMax =  -7.48240864822947E-08  9.48855490239494E+00
 cg2d: Sum(rhs),rhsMax =  -7.48277528828112E-08  9.48814760448955E+00
 cg2d: Sum(rhs),rhsMax =  -7.48317106058494E-08  9.48766929469714E+00
 cg2d: Sum(rhs),rhsMax =  -7.48361301816658E-08  9.48711003726197E+00
 cg2d: Sum(rhs),rhsMax =  -7.48412745110727E-08  9.48646127184076E+00
 cg2d: Sum(rhs),rhsMax =  -7.48473496514634E-08  9.48571598443359E+00
 cg2d: Sum(rhs),rhsMax =  -7.48540713857437E-08  9.48486884714226E+00
 cg2d: Sum(rhs),rhsMax =  -7.48618091961362E-08  9.48391631089758E+00
 cg2d: Sum(rhs),rhsMax =  -7.48703143926832E-08  9.48285664384895E+00
 cg2d: Sum(rhs),rhsMax =  -7.48790469629057E-08  9.48168991622247E+00
 cg2d: Sum(rhs),rhsMax =  -7.48895487845402E-08  9.48041794354397E+00
 cg2d: Sum(rhs),rhsMax =  -7.49003561395511E-08  9.47904418707887E+00
 cg2d: Sum(rhs),rhsMax =  -7.49121227272553E-08  9.47757361133926E+00
 cg2d: Sum(rhs),rhsMax =  -7.49249196019264E-08  9.47601250495736E+00
 cg2d: Sum(rhs),rhsMax =  -7.49377875308710E-08  9.47436827146146E+00
 cg2d: Sum(rhs),rhsMax =  -7.49514157405429E-08  9.47264919973884E+00
 cg2d: Sum(rhs),rhsMax =  -7.49656123844034E-08  9.47086422427234E+00
 cg2d: Sum(rhs),rhsMax =  -7.49802140376232E-08  9.46902267691356E+00
 cg2d: Sum(rhs),rhsMax =  -7.49953059653308E-08  9.46713403481286E+00
 cg2d: Sum(rhs),rhsMax =  -7.50105257907308E-08  9.46520767024855E+00
 cg2d: Sum(rhs),rhsMax =  -7.50263424720288E-08  9.46325259778073E+00
 cg2d: Sum(rhs),rhsMax =  -7.50422373130277E-08  9.46127726524814E+00
 cg2d: Sum(rhs),rhsMax =  -7.50577768826588E-08  9.45928937477588E+00
 cg2d: Sum(rhs),rhsMax =  -7.50738990973332E-08  9.45729571583441E+00
 cg2d: Sum(rhs),rhsMax =  -7.50896163026482E-08  9.45530206338839E+00
 cg2d: Sum(rhs),rhsMax =  -7.51056461467670E-08  9.45331309804778E+00
 cg2d: Sum(rhs),rhsMax =  -7.51212709815263E-08  9.45133234916556E+00
 cg2d: Sum(rhs),rhsMax =  -7.51373789853460E-08  9.44936217148271E+00
 cg2d: Sum(rhs),rhsMax =  -7.51527906572846E-08  9.44740375781686E+00
 cg2d: Sum(rhs),rhsMax =  -7.51685931277279E-08  9.44545718748645E+00
 cg2d: Sum(rhs),rhsMax =  -7.51841966462052E-08  9.44352151007986E+00
 cg2d: Sum(rhs),rhsMax =  -7.51994591041694E-08  9.44159486329961E+00
 cg2d: Sum(rhs),rhsMax =  -7.52147784055524E-08  9.43967460290015E+00
 cg2d: Sum(rhs),rhsMax =  -7.52305737705683E-08  9.43775744343237E+00
 cg2d: Sum(rhs),rhsMax =  -7.52457793851136E-08  9.43583960877673E+00
 cg2d: Sum(rhs),rhsMax =  -7.52614752741465E-08  9.43391698185443E+00
 cg2d: Sum(rhs),rhsMax =  -7.52768585243757E-08  9.43198524752366E+00
 cg2d: Sum(rhs),rhsMax =  -7.52925899405454E-08  9.43004003060471E+00
 cg2d: Sum(rhs),rhsMax =  -7.53084705706897E-08  9.42807701983885E+00
 cg2d: Sum(rhs),rhsMax =  -7.53246993667744E-08  9.42609207475689E+00
 cg2d: Sum(rhs),rhsMax =  -7.53408997411498E-08  9.42408132282525E+00
 cg2d: Sum(rhs),rhsMax =  -7.53572138023628E-08  9.42204124662806E+00
 cg2d: Sum(rhs),rhsMax =  -7.53741673520381E-08  9.41996876781019E+00
 cg2d: Sum(rhs),rhsMax =  -7.53910782691491E-08  9.41786131641806E+00
 cg2d: Sum(rhs),rhsMax =  -7.54086713072866E-08  9.41571688244791E+00
 cg2d: Sum(rhs),rhsMax =  -7.54266125113645E-08  9.41353407021840E+00
 cg2d: Sum(rhs),rhsMax =  -7.54444755557415E-08  9.41131216516102E+00
 cg2d: Sum(rhs),rhsMax =  -7.54630704591364E-08  9.40905115996980E+00
 cg2d: Sum(rhs),rhsMax =  -7.54816795733859E-08  9.40675174533744E+00
 cg2d: Sum(rhs),rhsMax =  -7.55005373775930E-08  9.40441527809810E+00
 cg2d: Sum(rhs),rhsMax =  -7.55200275648349E-08  9.40204373790542E+00
 cg2d: Sum(rhs),rhsMax =  -7.55398446017352E-08  9.39963967991296E+00
 cg2d: Sum(rhs),rhsMax =  -7.55594129486781E-08  9.39720618276624E+00
 cg2d: Sum(rhs),rhsMax =  -7.55797202600661E-08  9.39474678273504E+00
 cg2d: Sum(rhs),rhsMax =  -7.56002052071381E-08  9.39226540565015E+00
 EXTERNAL_FIELDS_LOAD, it=   3600390 : Reading new data, i0,i1=    7    8 (prev=    6    7 )
 DIC_FIELDS_LOAD, it=   3600390 : Reading new data, i0,i1=    7    8 (prev=    6    7 )
 cg2d: Sum(rhs),rhsMax =  -7.56204627805346E-08  9.38976628030644E+00
 cg2d: Sum(rhs),rhsMax =  -7.56415232672225E-08  9.38724775533259E+00
 cg2d: Sum(rhs),rhsMax =  -7.56618732111747E-08  9.38470942901966E+00
 cg2d: Sum(rhs),rhsMax =  -7.56830758064098E-08  9.38215030318780E+00
 cg2d: Sum(rhs),rhsMax =  -7.57043636667731E-08  9.37956883924381E+00
 cg2d: Sum(rhs),rhsMax =  -7.57257581085469E-08  9.37696305631202E+00
 cg2d: Sum(rhs),rhsMax =  -7.57472449208763E-08  9.37433065622099E+00
 cg2d: Sum(rhs),rhsMax =  -7.57689306851717E-08  9.37166915330181E+00
 cg2d: Sum(rhs),rhsMax =  -7.57913838356217E-08  9.36897600473142E+00
 cg2d: Sum(rhs),rhsMax =  -7.58139293566273E-08  9.36624871729081E+00
 cg2d: Sum(rhs),rhsMax =  -7.58368727815650E-08  9.36348495363947E+00
 cg2d: Sum(rhs),rhsMax =  -7.58596883088103E-08  9.36068261643794E+00
 cg2d: Sum(rhs),rhsMax =  -7.58831930625092E-08  9.35783991548456E+00
 cg2d: Sum(rhs),rhsMax =  -7.59071596689864E-08  9.35495541522523E+00
 cg2d: Sum(rhs),rhsMax =  -7.59316307608060E-08  9.35202806312956E+00
 cg2d: Sum(rhs),rhsMax =  -7.59561444851897E-08  9.34905718311665E+00
 cg2d: Sum(rhs),rhsMax =  -7.59807505801291E-08  9.34604244734688E+00
 cg2d: Sum(rhs),rhsMax =  -7.60062519589155E-08  9.34298385173757E+00
 cg2d: Sum(rhs),rhsMax =  -7.60316041237274E-08  9.33988171405705E+00
 cg2d: Sum(rhs),rhsMax =  -7.60576810421298E-08  9.33673667089172E+00
 cg2d: Sum(rhs),rhsMax =  -7.60842198133105E-08  9.33354966433849E+00
 cg2d: Sum(rhs),rhsMax =  -7.61109362201751E-08  9.33032189428481E+00
 cg2d: Sum(rhs),rhsMax =  -7.61379794766981E-08  9.32705473610878E+00
 cg2d: Sum(rhs),rhsMax =  -7.61650014169390E-08  9.32374964223594E+00
 cg2d: Sum(rhs),rhsMax =  -7.61924070502573E-08  9.32040805771324E+00
 cg2d: Sum(rhs),rhsMax =  -7.62202390092170E-08  9.31703133797851E+00
 cg2d: Sum(rhs),rhsMax =  -7.62486536132201E-08  9.31362068532222E+00
 cg2d: Sum(rhs),rhsMax =  -7.62769758466675E-08  9.31017709807696E+00
 cg2d: Sum(rhs),rhsMax =  -7.63053833452432E-08  9.30670132260387E+00
 cg2d: Sum(rhs),rhsMax =  -7.63343095400160E-08  9.30319380786966E+00
 cg2d: Sum(rhs),rhsMax =  -7.63631078370963E-08  9.29965466644313E+00
 cg2d: Sum(rhs),rhsMax =  -7.63924603575106E-08  9.29608366095666E+00
 cg2d: Sum(rhs),rhsMax =  -7.64222036764295E-08  9.29248016366683E+00
 cg2d: Sum(rhs),rhsMax =  -7.64520393659041E-08  9.28884314276847E+00
 cg2d: Sum(rhs),rhsMax =  -7.64822445376012E-08  9.28517117681256E+00
 cg2d: Sum(rhs),rhsMax =  -7.65125633961361E-08  9.28146248933914E+00
 cg2d: Sum(rhs),rhsMax =  -7.65432446314662E-08  9.27771499430064E+00
 cg2d: Sum(rhs),rhsMax =  -7.65746861475236E-08  9.27392634829171E+00
 cg2d: Sum(rhs),rhsMax =  -7.66061276635810E-08  9.27009401586145E+00
 cg2d: Sum(rhs),rhsMax =  -7.66378391858780E-08  9.26621534803516E+00
 cg2d: Sum(rhs),rhsMax =  -7.66705383625776E-08  9.26228766593419E+00
 cg2d: Sum(rhs),rhsMax =  -7.67030741144481E-08  9.25830830078040E+00
 cg2d: Sum(rhs),rhsMax =  -7.67362919873449E-08  9.25427464244149E+00
 cg2d: Sum(rhs),rhsMax =  -7.67699646075926E-08  9.25018420208542E+00
 cg2d: Sum(rhs),rhsMax =  -7.68039853937807E-08  9.24603467114681E+00
 cg2d: Sum(rhs),rhsMax =  -7.68388872529613E-08  9.24182397900772E+00
 cg2d: Sum(rhs),rhsMax =  -7.68742154377833E-08  9.23755034859452E+00
 cg2d: Sum(rhs),rhsMax =  -7.69100552133750E-08  9.23321234366443E+00
 cg2d: Sum(rhs),rhsMax =  -7.69468400108053E-08  9.22880889968266E+00
 cg2d: Sum(rhs),rhsMax =  -7.69835182268253E-08  9.22433933197490E+00
 cg2d: Sum(rhs),rhsMax =  -7.70209354072904E-08  9.21980332836426E+00
 cg2d: Sum(rhs),rhsMax =  -7.70591341847648E-08  9.21520093492414E+00
 cg2d: Sum(rhs),rhsMax =  -7.70982282460864E-08  9.21053254057723E+00
 cg2d: Sum(rhs),rhsMax =  -7.71375923136475E-08  9.20579886154174E+00
 cg2d: Sum(rhs),rhsMax =  -7.71773187580038E-08  9.20100092277316E+00
 cg2d: Sum(rhs),rhsMax =  -7.72178623265063E-08  9.19614003508373E+00
 cg2d: Sum(rhs),rhsMax =  -7.72588606423597E-08  9.19121776376076E+00
 cg2d: Sum(rhs),rhsMax =  -7.73005126575299E-08  9.18623589368687E+00
 cg2d: Sum(rhs),rhsMax =  -7.73430812728293E-08  9.18119640414723E+00
 cg2d: Sum(rhs),rhsMax =  -7.73854154090259E-08  9.17610144209478E+00
 EXTERNAL_FIELDS_LOAD, it=   3600450 : Reading new data, i0,i1=    8    9 (prev=    7    8 )
 DIC_FIELDS_LOAD, it=   3600450 : Reading new data, i0,i1=    8    9 (prev=    7    8 )
 cg2d: Sum(rhs),rhsMax =  -7.74284956150950E-08  9.17095326904567E+00
 cg2d: Sum(rhs),rhsMax =  -7.74719595142415E-08  9.16576412699309E+00
 cg2d: Sum(rhs),rhsMax =  -7.75162902755255E-08  9.16054233368469E+00
 cg2d: Sum(rhs),rhsMax =  -7.75600952351851E-08  9.15529583959941E+00
 cg2d: Sum(rhs),rhsMax =  -7.76045467887343E-08  9.15003201693785E+00
 cg2d: Sum(rhs),rhsMax =  -7.76489557097193E-08  9.14475750599293E+00
 cg2d: Sum(rhs),rhsMax =  -7.76937127966448E-08  9.13947810620331E+00
 cg2d: Sum(rhs),rhsMax =  -7.77385196215619E-08  9.13419871539155E+00
 cg2d: Sum(rhs),rhsMax =  -7.77830635456667E-08  9.12892331307296E+00
 cg2d: Sum(rhs),rhsMax =  -7.78277424728913E-08  9.12365496001899E+00
 cg2d: Sum(rhs),rhsMax =  -7.78721371830216E-08  9.11839580250666E+00
 cg2d: Sum(rhs),rhsMax =  -7.79170150622122E-08  9.11314707861780E+00
 cg2d: Sum(rhs),rhsMax =  -7.79618360979839E-08  9.10790912686148E+00
 cg2d: Sum(rhs),rhsMax =  -7.80063302840972E-08  9.10268140327570E+00
 cg2d: Sum(rhs),rhsMax =  -7.80512792175614E-08  9.09746251290633E+00
 cg2d: Sum(rhs),rhsMax =  -7.80961926238888E-08  9.09225025831423E+00
 cg2d: Sum(rhs),rhsMax =  -7.81409141836775E-08  9.08704170372423E+00
 cg2d: Sum(rhs),rhsMax =  -7.81859057497059E-08  9.08183325412304E+00
 cg2d: Sum(rhs),rhsMax =  -7.82307836288965E-08  9.07662074967284E+00
 cg2d: Sum(rhs),rhsMax =  -7.82759315143267E-08  9.07139957792224E+00
 cg2d: Sum(rhs),rhsMax =  -7.83211078214663E-08  9.06616480379289E+00
 cg2d: Sum(rhs),rhsMax =  -7.83665612402729E-08  9.06091131197731E+00
 cg2d: Sum(rhs),rhsMax =  -7.84124978281397E-08  9.05563395765243E+00
 cg2d: Sum(rhs),rhsMax =  -7.84584273105793E-08  9.05032772066772E+00
 cg2d: Sum(rhs),rhsMax =  -7.85049394380621E-08  9.04498784959721E+00
 cg2d: Sum(rhs),rhsMax =  -7.85514657763997E-08  9.03960999802522E+00
 cg2d: Sum(rhs),rhsMax =  -7.85986244977721E-08  9.03419034933061E+00
 cg2d: Sum(rhs),rhsMax =  -7.86464653401708E-08  9.02872572370695E+00
 cg2d: Sum(rhs),rhsMax =  -7.86944696073988E-08  9.02321366240276E+00
 cg2d: Sum(rhs),rhsMax =  -7.87431417847984E-08  9.01765248043218E+00
 cg2d: Sum(rhs),rhsMax =  -7.87920484413007E-08  9.01204128366352E+00
 cg2d: Sum(rhs),rhsMax =  -7.88417082731030E-08  9.00637994805543E+00
 cg2d: Sum(rhs),rhsMax =  -7.88920360150769E-08  9.00066907167982E+00
 cg2d: Sum(rhs),rhsMax =  -7.89423353353413E-08  8.99490990653884E+00
 cg2d: Sum(rhs),rhsMax =  -7.89935867828717E-08  8.98910428085158E+00
 cg2d: Sum(rhs),rhsMax =  -7.90451721854879E-08  8.98325450032841E+00
 cg2d: Sum(rhs),rhsMax =  -7.90971625974635E-08  8.97736324616216E+00
 cg2d: Sum(rhs),rhsMax =  -7.91497498653371E-08  8.97143347490525E+00
 cg2d: Sum(rhs),rhsMax =  -7.92022945006465E-08  8.96546832283943E+00
 cg2d: Sum(rhs),rhsMax =  -7.92553649375805E-08  8.95947101876645E+00
 cg2d: Sum(rhs),rhsMax =  -7.93088545947285E-08  8.95344480865740E+00
 cg2d: Sum(rhs),rhsMax =  -7.93626284689708E-08  8.94739288844395E+00
 cg2d: Sum(rhs),rhsMax =  -7.94164307649226E-08  8.94131834581199E+00
 cg2d: Sum(rhs),rhsMax =  -7.94707304407893E-08  8.93522409346950E+00
 cg2d: Sum(rhs),rhsMax =  -7.95254209151608E-08  8.92911278517729E+00
 cg2d: Sum(rhs),rhsMax =  -7.95802961306435E-08  8.92298675820892E+00
 cg2d: Sum(rhs),rhsMax =  -7.96350860809980E-08  8.91684802723521E+00
 cg2d: Sum(rhs),rhsMax =  -7.96901744593015E-08  8.91069816303900E+00
 cg2d: Sum(rhs),rhsMax =  -7.97458028500841E-08  8.90453822689960E+00
 cg2d: Sum(rhs),rhsMax =  -7.98008059632593E-08  8.89836886679347E+00
 cg2d: Sum(rhs),rhsMax =  -7.98565338300250E-08  8.89219046877893E+00
 cg2d: Sum(rhs),rhsMax =  -7.99122830130727E-08  8.88600325900496E+00
 cg2d: Sum(rhs),rhsMax =  -7.99680890395393E-08  8.87980729026012E+00
 cg2d: Sum(rhs),rhsMax =  -8.00242716536559E-08  8.87360238895611E+00
 cg2d: Sum(rhs),rhsMax =  -8.00806461143111E-08  8.86738778998965E+00
 cg2d: Sum(rhs),rhsMax =  -8.01370845238125E-08  8.86116239780069E+00
 cg2d: Sum(rhs),rhsMax =  -8.01937503069894E-08  8.85492496573172E+00
 cg2d: Sum(rhs),rhsMax =  -8.02502100327729E-08  8.84867413251653E+00
 cg2d: Sum(rhs),rhsMax =  -8.03073376687280E-08  8.84240642216679E+00
 cg2d: Sum(rhs),rhsMax =  -8.03649982117349E-08  8.83611901543530E+00
 EXTERNAL_FIELDS_LOAD, it=   3600510 : Reading new data, i0,i1=    9   10 (prev=    8    9 )
 DIC_FIELDS_LOAD, it=   3600510 : Reading new data, i0,i1=    9   10 (prev=    8    9 )
 cg2d: Sum(rhs),rhsMax =   7.26443744270000E-07  8.82980984712400E+00
 cg2d: Sum(rhs),rhsMax =   7.26964735520141E-07  8.82347794558069E+00
 cg2d: Sum(rhs),rhsMax =   7.27488490781525E-07  8.81712315099843E+00
 cg2d: Sum(rhs),rhsMax =   7.28014811102184E-07  8.81074549524165E+00
 cg2d: Sum(rhs),rhsMax =   7.28543902539514E-07  8.80434545174903E+00
 cg2d: Sum(rhs),rhsMax =   7.29075765093512E-07  8.79792398377942E+00
 cg2d: Sum(rhs),rhsMax =   7.29609311633794E-07  8.79148251693210E+00
 cg2d: Sum(rhs),rhsMax =   7.30145494287626E-07  8.78502295334308E+00
 cg2d: Sum(rhs),rhsMax =   7.30684142524751E-07  8.77854760850846E+00
 cg2d: Sum(rhs),rhsMax =   7.31224545802434E-07  8.77205917171969E+00
 EXTERNAL_FIELDS_LOAD, it=   3600510 : Reading new data, i0,i1=    9   10 (prev=    8   10 )
 DIC_FIELDS_LOAD, it=   3600510 : Reading new data, i0,i1=    9   10 (prev=    8    9 )
 cg2d: Sum(rhs),rhsMax =   7.26443744270000E-07  8.82980984712400E+00
 cg2d: Sum(rhs),rhsMax =   7.26964735520141E-07  8.82347794558069E+00
 cg2d: Sum(rhs),rhsMax =   7.27488490781525E-07  8.81712315099843E+00
 cg2d: Sum(rhs),rhsMax =   7.28014811102184E-07  8.81074549524165E+00
 cg2d: Sum(rhs),rhsMax =   7.28543902539514E-07  8.80434545174903E+00
 cg2d: Sum(rhs),rhsMax =   7.29075765093512E-07  8.79792398377942E+00
 cg2d: Sum(rhs),rhsMax =   7.29609311633794E-07  8.79148251693210E+00
 cg2d: Sum(rhs),rhsMax =   7.30145494287626E-07  8.78502295334308E+00
 cg2d: Sum(rhs),rhsMax =   7.30684142524751E-07  8.77854760850846E+00
 cg2d: Sum(rhs),rhsMax =   1.68056580918119E-06  8.77205921271859E+00
 cg2d: Sum(rhs),rhsMax =   3.82818776678562E-12  2.04034025968533E-02
 EXTERNAL_FIELDS_LOAD, it=   3600510 : Reading new data, i0,i1=    9   10 (prev=    8   10 )
 DIC_FIELDS_LOAD, it=   3600510 : Reading new data, i0,i1=    9   10 (prev=    8    9 )
 cg2d: Sum(rhs),rhsMax =   7.26443744270000E-07  8.82980984712400E+00
 cg2d: Sum(rhs),rhsMax =   7.26964735520141E-07  8.82347794558069E+00
 cg2d: Sum(rhs),rhsMax =   7.27488490781525E-07  8.81712315099843E+00
 cg2d: Sum(rhs),rhsMax =   7.28014811102184E-07  8.81074549524165E+00
 cg2d: Sum(rhs),rhsMax =   7.28543902539514E-07  8.80434545174903E+00
 cg2d: Sum(rhs),rhsMax =   7.29075765093512E-07  8.79792398377942E+00
 cg2d: Sum(rhs),rhsMax =   7.29609311633794E-07  8.79148251693210E+00
 cg2d: Sum(rhs),rhsMax =   7.30145494287626E-07  8.78502295334308E+00
 cg2d: Sum(rhs),rhsMax =   2.09793171279671E-07  8.77854738311856E+00
 cg2d: Sum(rhs),rhsMax =   3.82467668647024E-12  2.17506633359389E-02
 EXTERNAL_FIELDS_LOAD, it=   3600510 : Reading new data, i0,i1=    9   10 (prev=    8   10 )
 DIC_FIELDS_LOAD, it=   3600510 : Reading new data, i0,i1=    9   10 (prev=    8    9 )
 cg2d: Sum(rhs),rhsMax =   7.26443744270000E-07  8.82980984712400E+00
 cg2d: Sum(rhs),rhsMax =   7.26964735520141E-07  8.82347794558069E+00
 cg2d: Sum(rhs),rhsMax =   7.27488490781525E-07  8.81712315099843E+00
 cg2d: Sum(rhs),rhsMax =   7.28014811102184E-07  8.81074549524165E+00
 cg2d: Sum(rhs),rhsMax =   7.28543902539514E-07  8.80434545174903E+00
 cg2d: Sum(rhs),rhsMax =   7.29075765093512E-07  8.79792398377942E+00
 cg2d: Sum(rhs),rhsMax =   7.29609311633794E-07  8.79148251693210E+00
 cg2d: Sum(rhs),rhsMax =  -1.57449143500799E-07  8.78502302713045E+00
 cg2d: Sum(rhs),rhsMax =   3.86320142542473E-12  2.24552401124069E-02
 EXTERNAL_FIELDS_LOAD, it=   3600510 : Reading new data, i0,i1=    9   10 (prev=    8   10 )
 DIC_FIELDS_LOAD, it=   3600510 : Reading new data, i0,i1=    9   10 (prev=    8    9 )
 cg2d: Sum(rhs),rhsMax =   7.26443744270000E-07  8.82980984712400E+00
 cg2d: Sum(rhs),rhsMax =   7.26964735520141E-07  8.82347794558069E+00
 cg2d: Sum(rhs),rhsMax =   7.27488490781525E-07  8.81712315099843E+00
 cg2d: Sum(rhs),rhsMax =   7.28014811102184E-07  8.81074549524165E+00
 cg2d: Sum(rhs),rhsMax =   7.28543902539514E-07  8.80434545174903E+00
 cg2d: Sum(rhs),rhsMax =   7.29075765093512E-07  8.79792398377942E+00
 cg2d: Sum(rhs),rhsMax =   8.58775266010525E-07  8.79148269827255E+00
 cg2d: Sum(rhs),rhsMax =   3.96131738522598E-12  2.25748954631029E-02
 EXTERNAL_FIELDS_LOAD, it=   3600510 : Reading new data, i0,i1=    9   10 (prev=    8   10 )
 DIC_FIELDS_LOAD, it=   3600510 : Reading new data, i0,i1=    9   10 (prev=    8    9 )
 cg2d: Sum(rhs),rhsMax =   7.26443744270000E-07  8.82980984712400E+00
 cg2d: Sum(rhs),rhsMax =   7.26964735520141E-07  8.82347794558069E+00
 cg2d: Sum(rhs),rhsMax =   7.27488490781525E-07  8.81712315099843E+00
 cg2d: Sum(rhs),rhsMax =   7.28014811102184E-07  8.81074549524165E+00
 cg2d: Sum(rhs),rhsMax =   7.28543902539514E-07  8.80434545174903E+00
 cg2d: Sum(rhs),rhsMax =   1.26400485811473E-06  8.79792367082403E+00
 cg2d: Sum(rhs),rhsMax =   4.11079503770395E-12  2.24230517380571E-02
 EXTERNAL_FIELDS_LOAD, it=   3600510 : Reading new data, i0,i1=    9   10 (prev=    8   10 )
 DIC_FIELDS_LOAD, it=   3600510 : Reading new data, i0,i1=    9   10 (prev=    8    9 )
 cg2d: Sum(rhs),rhsMax =   7.26443744270000E-07  8.82980984712400E+00
 cg2d: Sum(rhs),rhsMax =   7.26964735520141E-07  8.82347794558069E+00
 cg2d: Sum(rhs),rhsMax =   7.27488490781525E-07  8.81712315099843E+00
 cg2d: Sum(rhs),rhsMax =   7.28014811102184E-07  8.81074549524165E+00
 cg2d: Sum(rhs),rhsMax =   7.93234846696578E-07  8.80434549413214E+00
 cg2d: Sum(rhs),rhsMax =   4.31425728475432E-12  2.22281207207208E-02
 EXTERNAL_FIELDS_LOAD, it=   3600510 : Reading new data, i0,i1=    9   10 (prev=    8   10 )
 DIC_FIELDS_LOAD, it=   3600510 : Reading new data, i0,i1=    9   10 (prev=    8    9 )
 cg2d: Sum(rhs),rhsMax =   7.26443744270000E-07  8.82980984712400E+00
 cg2d: Sum(rhs),rhsMax =   7.26964735520141E-07  8.82347794558069E+00
 cg2d: Sum(rhs),rhsMax =   7.27488490781525E-07  8.81712315099843E+00
 cg2d: Sum(rhs),rhsMax =   2.29500471959909E-07  8.81074541066374E+00
 cg2d: Sum(rhs),rhsMax =   4.44590197989925E-12  2.21244775143520E-02
 EXTERNAL_FIELDS_LOAD, it=   3600510 : Reading new data, i0,i1=    9   10 (prev=    8   10 )
 DIC_FIELDS_LOAD, it=   3600510 : Reading new data, i0,i1=    9   10 (prev=    8    9 )
 cg2d: Sum(rhs),rhsMax =   7.26443744270000E-07  8.82980984712400E+00
 cg2d: Sum(rhs),rhsMax =   7.26964735520141E-07  8.82347794558069E+00
 cg2d: Sum(rhs),rhsMax =   9.16161852160258E-07  8.81712295373508E+00
 cg2d: Sum(rhs),rhsMax =   4.61497506876185E-12  2.19294289817302E-02
 EXTERNAL_FIELDS_LOAD, it=   3600510 : Reading new data, i0,i1=    9   10 (prev=    8   10 )
 DIC_FIELDS_LOAD, it=   3600510 : Reading new data, i0,i1=    9   10 (prev=    8    9 )
 cg2d: Sum(rhs),rhsMax =   7.26443744270000E-07  8.82980984712400E+00
 cg2d: Sum(rhs),rhsMax =   7.87240928445954E-07  8.82347767502120E+00
 cg2d: Sum(rhs),rhsMax =   4.83202367007607E-12  2.17653015932461E-02
 EXTERNAL_FIELDS_LOAD, it=   3600510 : Reading new data, i0,i1=    9   10 (prev=    8   10 )
 DIC_FIELDS_LOAD, it=   3600510 : Reading new data, i0,i1=    9   10 (prev=    8    9 )
 cg2d: Sum(rhs),rhsMax =   7.26443488474615E-07  8.82980984719998E+00
 cg2d: Sum(rhs),rhsMax =   4.91809371006013E-12  2.17176118366621E-02
 cg2d: Sum(rhs),rhsMax =  -7.46576347410155E-08  9.50907671569018E+00
 cg2d: Sum(rhs),rhsMax =  -7.46636956705515E-08  9.50827538007810E+00
 cg2d: Sum(rhs),rhsMax =  -7.46696002806857E-08  9.50759038673436E+00
 cg2d: Sum(rhs),rhsMax =  -7.46738635371003E-08  9.50702164848735E+00
 cg2d: Sum(rhs),rhsMax =  -7.46774944104800E-08  9.50656668487862E+00
 cg2d: Sum(rhs),rhsMax =  -7.46800878914655E-08  9.50622069715104E+00
 cg2d: Sum(rhs),rhsMax =  -7.46821626762539E-08  9.50597670066013E+00
 cg2d: Sum(rhs),rhsMax =  -7.46832924392038E-08  9.50582571630982E+00
 cg2d: Sum(rhs),rhsMax =  -7.46840456145037E-08  9.50575700943737E+00
 cg2d: Sum(rhs),rhsMax =  -7.46835624454434E-08  9.50575837107225E+00
 cg2d: Sum(rhs),rhsMax =  -7.46833208609132E-08  9.50581645922263E+00
 cg2d: Sum(rhs),rhsMax =  -7.46821982033907E-08  9.50591711991761E+00
 cg2d: Sum(rhs),rhsMax =  -7.46813526575352E-08  9.50604571310823E+00
 cg2d: Sum(rhs),rhsMax =  -7.46798960449269E-08  9.50618745972881E+00
 cg2d: Sum(rhs),rhsMax =  -7.46791073424902E-08  9.50632780119137E+00
 cg2d: Sum(rhs),rhsMax =  -7.46779846849677E-08  9.50645275158785E+00
 cg2d: Sum(rhs),rhsMax =  -7.46776720461639E-08  9.50654922994562E+00
 cg2d: Sum(rhs),rhsMax =  -7.46771249282574E-08  9.50660536798306E+00
 cg2d: Sum(rhs),rhsMax =  -7.46771320336848E-08  9.50661078108177E+00
 cg2d: Sum(rhs),rhsMax =  -7.46778141547111E-08  9.50655679154863E+00
 cg2d: Sum(rhs),rhsMax =  -7.46784394323186E-08  9.50643658250018E+00
 cg2d: Sum(rhs),rhsMax =  -7.46802726325768E-08  9.50624530490270E+00
 cg2d: Sum(rhs),rhsMax =  -7.46821271491172E-08  9.50598009866199E+00
 cg2d: Sum(rhs),rhsMax =  -7.46850545851885E-08  9.50564005870858E+00
 cg2d: Sum(rhs),rhsMax =  -7.46883372926277E-08  9.50522619443621E+00
 cg2d: Sum(rhs),rhsMax =  -7.46918829008791E-08  9.50474133855045E+00
 cg2d: Sum(rhs),rhsMax =  -7.46962030007126E-08  9.50418990415982E+00
 cg2d: Sum(rhs),rhsMax =  -7.47013260138374E-08  9.50357767429962E+00
 cg2d: Sum(rhs),rhsMax =  -7.47062216532868E-08  9.50291163791579E+00
 cg2d: Sum(rhs),rhsMax =  -7.47126236433360E-08  9.50219980056318E+00
 cg2d: Sum(rhs),rhsMax =  -7.47184074612051E-08  9.50145094748729E+00
 cg2d: Sum(rhs),rhsMax =  -7.47247455024080E-08  9.50067438045622E+00
 cg2d: Sum(rhs),rhsMax =  -7.47313322335685E-08  9.49987965703835E+00
 cg2d: Sum(rhs),rhsMax =  -7.47377768561819E-08  9.49907634096511E+00
 cg2d: Sum(rhs),rhsMax =  -7.47441433190943E-08  9.49827377465974E+00
 cg2d: Sum(rhs),rhsMax =  -7.47505310982888E-08  9.49748086980356E+00
 cg2d: Sum(rhs),rhsMax =  -7.47569046666285E-08  9.49670591827534E+00
 cg2d: Sum(rhs),rhsMax =  -7.47627666441986E-08  9.49595642566026E+00
 cg2d: Sum(rhs),rhsMax =  -7.47686570434780E-08  9.49523896197083E+00
 cg2d: Sum(rhs),rhsMax =  -7.47742205930990E-08  9.49455904201468E+00
 cg2d: Sum(rhs),rhsMax =  -7.47793578170786E-08  9.49392104808525E+00
 cg2d: Sum(rhs),rhsMax =  -7.47843102999468E-08  9.49332815058320E+00
 cg2d: Sum(rhs),rhsMax =  -7.47889217223019E-08  9.49278226320107E+00
 cg2d: Sum(rhs),rhsMax =  -7.47930855027334E-08  9.49228403703651E+00
 cg2d: Sum(rhs),rhsMax =  -7.47963611047453E-08  9.49183288684206E+00
 cg2d: Sum(rhs),rhsMax =  -7.48000417161165E-08  9.49142705076112E+00
 cg2d: Sum(rhs),rhsMax =  -7.48029052033417E-08  9.49106366991647E+00
 cg2d: Sum(rhs),rhsMax =  -7.48058113231309E-08  9.49073888097194E+00
 cg2d: Sum(rhs),rhsMax =  -7.48079642676203E-08  9.49044792286002E+00
 cg2d: Sum(rhs),rhsMax =  -7.48104369563407E-08  9.49018527463466E+00
 EXTERNAL_FIELDS_LOAD, it=   3600330 : Reading new data, i0,i1=    6    7 (prev=    5   10 )
 DIC_FIELDS_LOAD, it=   3600330 : Reading new data, i0,i1=    6    7 (prev=    5    6 )
 cg2d: Sum(rhs),rhsMax =  -7.48125685845480E-08  9.48994481428126E+00
 cg2d: Sum(rhs),rhsMax =  -7.48145367879260E-08  9.48970977028949E+00
 cg2d: Sum(rhs),rhsMax =  -7.48167536812616E-08  9.48946667050908E+00
 cg2d: Sum(rhs),rhsMax =  -7.48186579357935E-08  9.48920195983684E+00
 cg2d: Sum(rhs),rhsMax =  -7.48212727330611E-08  9.48890231838115E+00
 cg2d: Sum(rhs),rhsMax =  -7.48240864822947E-08  9.48855490239494E+00
 cg2d: Sum(rhs),rhsMax =  -7.48277528828112E-08  9.48814760448955E+00
 cg2d: Sum(rhs),rhsMax =  -7.48317106058494E-08  9.48766929469714E+00
 cg2d: Sum(rhs),rhsMax =  -7.48361301816658E-08  9.48711003726197E+00
 cg2d: Sum(rhs),rhsMax =  -7.48412745110727E-08  9.48646127184076E+00
 cg2d: Sum(rhs),rhsMax =  -7.48473496514634E-08  9.48571598443359E+00
 cg2d: Sum(rhs),rhsMax =  -7.48540713857437E-08  9.48486884714226E+00
 cg2d: Sum(rhs),rhsMax =  -7.48618091961362E-08  9.48391631089758E+00
 cg2d: Sum(rhs),rhsMax =  -7.48703143926832E-08  9.48285664384895E+00
 cg2d: Sum(rhs),rhsMax =  -7.48790469629057E-08  9.48168991622247E+00
 cg2d: Sum(rhs),rhsMax =  -7.48895487845402E-08  9.48041794354397E+00
 cg2d: Sum(rhs),rhsMax =  -7.49003561395511E-08  9.47904418707887E+00
 cg2d: Sum(rhs),rhsMax =  -7.49121227272553E-08  9.47757361133926E+00
 cg2d: Sum(rhs),rhsMax =  -7.49249196019264E-08  9.47601250495736E+00
 cg2d: Sum(rhs),rhsMax =  -7.49377875308710E-08  9.47436827146146E+00
 cg2d: Sum(rhs),rhsMax =  -7.49514157405429E-08  9.47264919973884E+00
 cg2d: Sum(rhs),rhsMax =  -7.49656123844034E-08  9.47086422427234E+00
 cg2d: Sum(rhs),rhsMax =  -7.49802140376232E-08  9.46902267691356E+00
 cg2d: Sum(rhs),rhsMax =  -7.49953059653308E-08  9.46713403481286E+00
 cg2d: Sum(rhs),rhsMax =  -7.50105257907308E-08  9.46520767024855E+00
 cg2d: Sum(rhs),rhsMax =  -7.50263424720288E-08  9.46325259778073E+00
 cg2d: Sum(rhs),rhsMax =  -7.50422373130277E-08  9.46127726524814E+00
 cg2d: Sum(rhs),rhsMax =  -7.50577768826588E-08  9.45928937477588E+00
 cg2d: Sum(rhs),rhsMax =  -7.50738990973332E-08  9.45729571583441E+00
 cg2d: Sum(rhs),rhsMax =  -7.50896163026482E-08  9.45530206338839E+00
 cg2d: Sum(rhs),rhsMax =  -7.51056461467670E-08  9.45331309804778E+00
 cg2d: Sum(rhs),rhsMax =  -7.51212709815263E-08  9.45133234916556E+00
 cg2d: Sum(rhs),rhsMax =  -7.51373789853460E-08  9.44936217148271E+00
 cg2d: Sum(rhs),rhsMax =  -7.51527906572846E-08  9.44740375781686E+00
 cg2d: Sum(rhs),rhsMax =  -7.51685931277279E-08  9.44545718748645E+00
 cg2d: Sum(rhs),rhsMax =  -7.51841966462052E-08  9.44352151007986E+00
 cg2d: Sum(rhs),rhsMax =  -7.51994591041694E-08  9.44159486329961E+00
 cg2d: Sum(rhs),rhsMax =  -7.52147784055524E-08  9.43967460290015E+00
 cg2d: Sum(rhs),rhsMax =  -7.52305737705683E-08  9.43775744343237E+00
 cg2d: Sum(rhs),rhsMax =  -7.52457793851136E-08  9.43583960877673E+00
 cg2d: Sum(rhs),rhsMax =  -7.52614752741465E-08  9.43391698185443E+00
 cg2d: Sum(rhs),rhsMax =  -7.52768585243757E-08  9.43198524752366E+00
 cg2d: Sum(rhs),rhsMax =  -7.52925899405454E-08  9.43004003060471E+00
 cg2d: Sum(rhs),rhsMax =  -7.53084705706897E-08  9.42807701983885E+00
 cg2d: Sum(rhs),rhsMax =  -7.53246993667744E-08  9.42609207475689E+00
 cg2d: Sum(rhs),rhsMax =  -7.53408997411498E-08  9.42408132282525E+00
 cg2d: Sum(rhs),rhsMax =  -7.53572138023628E-08  9.42204124662806E+00
 cg2d: Sum(rhs),rhsMax =  -7.53741673520381E-08  9.41996876781019E+00
 cg2d: Sum(rhs),rhsMax =  -7.53910782691491E-08  9.41786131641806E+00
 cg2d: Sum(rhs),rhsMax =  -7.54086713072866E-08  9.41571688244791E+00
 cg2d: Sum(rhs),rhsMax =  -7.54266125113645E-08  9.41353407021840E+00
 cg2d: Sum(rhs),rhsMax =  -7.54444755557415E-08  9.41131216516102E+00
 cg2d: Sum(rhs),rhsMax =  -7.54630704591364E-08  9.40905115996980E+00
 cg2d: Sum(rhs),rhsMax =  -7.54816795733859E-08  9.40675174533744E+00
 cg2d: Sum(rhs),rhsMax =  -7.55005373775930E-08  9.40441527809810E+00
 cg2d: Sum(rhs),rhsMax =  -7.55200275648349E-08  9.40204373790542E+00
 cg2d: Sum(rhs),rhsMax =  -7.55398446017352E-08  9.39963967991296E+00
 cg2d: Sum(rhs),rhsMax =  -7.55594129486781E-08  9.39720618276624E+00
 cg2d: Sum(rhs),rhsMax =  -7.55797202600661E-08  9.39474678273504E+00
 cg2d: Sum(rhs),rhsMax =  -7.56002052071381E-08  9.39226540565015E+00
 EXTERNAL_FIELDS_LOAD, it=   3600390 : Reading new data, i0,i1=    7    8 (prev=    6    7 )
 DIC_FIELDS_LOAD, it=   3600390 : Reading new data, i0,i1=    7    8 (prev=    6    7 )
 cg2d: Sum(rhs),rhsMax =  -7.56204627805346E-08  9.38976628030644E+00
 cg2d: Sum(rhs),rhsMax =  -7.56415232672225E-08  9.38724775533259E+00
 cg2d: Sum(rhs),rhsMax =  -7.56618732111747E-08  9.38470942901966E+00
 cg2d: Sum(rhs),rhsMax =  -7.56830758064098E-08  9.38215030318780E+00
 cg2d: Sum(rhs),rhsMax =  -7.57043636667731E-08  9.37956883924381E+00
 cg2d: Sum(rhs),rhsMax =  -7.57257581085469E-08  9.37696305631202E+00
 cg2d: Sum(rhs),rhsMax =  -7.57472449208763E-08  9.37433065622099E+00
 cg2d: Sum(rhs),rhsMax =  -7.57689306851717E-08  9.37166915330181E+00
 cg2d: Sum(rhs),rhsMax =  -7.57913838356217E-08  9.36897600473142E+00
 cg2d: Sum(rhs),rhsMax =  -7.58139293566273E-08  9.36624871729081E+00
 cg2d: Sum(rhs),rhsMax =  -7.58368727815650E-08  9.36348495363947E+00
 cg2d: Sum(rhs),rhsMax =  -7.58596883088103E-08  9.36068261643794E+00
 cg2d: Sum(rhs),rhsMax =  -7.58831930625092E-08  9.35783991548456E+00
 cg2d: Sum(rhs),rhsMax =  -7.59071596689864E-08  9.35495541522523E+00
 cg2d: Sum(rhs),rhsMax =  -7.59316307608060E-08  9.35202806312956E+00
 cg2d: Sum(rhs),rhsMax =  -7.59561444851897E-08  9.34905718311665E+00
 cg2d: Sum(rhs),rhsMax =  -7.59807505801291E-08  9.34604244734688E+00
 cg2d: Sum(rhs),rhsMax =  -7.60062519589155E-08  9.34298385173757E+00
 cg2d: Sum(rhs),rhsMax =  -7.60316041237274E-08  9.33988171405705E+00
 cg2d: Sum(rhs),rhsMax =  -7.60576810421298E-08  9.33673667089172E+00
 cg2d: Sum(rhs),rhsMax =  -7.60842198133105E-08  9.33354966433849E+00
 cg2d: Sum(rhs),rhsMax =  -7.61109362201751E-08  9.33032189428481E+00
 cg2d: Sum(rhs),rhsMax =  -7.61379794766981E-08  9.32705473610878E+00
 cg2d: Sum(rhs),rhsMax =  -7.61650014169390E-08  9.32374964223594E+00
 cg2d: Sum(rhs),rhsMax =  -7.61924070502573E-08  9.32040805771324E+00
 cg2d: Sum(rhs),rhsMax =  -7.62202390092170E-08  9.31703133797851E+00
 cg2d: Sum(rhs),rhsMax =  -7.62486536132201E-08  9.31362068532222E+00
 cg2d: Sum(rhs),rhsMax =  -7.62769758466675E-08  9.31017709807696E+00
 cg2d: Sum(rhs),rhsMax =  -7.63053833452432E-08  9.30670132260387E+00
 cg2d: Sum(rhs),rhsMax =  -7.63343095400160E-08  9.30319380786966E+00
 cg2d: Sum(rhs),rhsMax =  -7.63631078370963E-08  9.29965466644313E+00
 cg2d: Sum(rhs),rhsMax =  -7.63924603575106E-08  9.29608366095666E+00
 cg2d: Sum(rhs),rhsMax =  -7.64222036764295E-08  9.29248016366683E+00
 cg2d: Sum(rhs),rhsMax =  -7.64520393659041E-08  9.28884314276847E+00
 cg2d: Sum(rhs),rhsMax =  -7.64822445376012E-08  9.28517117681256E+00
 cg2d: Sum(rhs),rhsMax =  -7.65125633961361E-08  9.28146248933914E+00
 cg2d: Sum(rhs),rhsMax =  -7.65432446314662E-08  9.27771499430064E+00
 cg2d: Sum(rhs),rhsMax =  -7.65746861475236E-08  9.27392634829171E+00
 cg2d: Sum(rhs),rhsMax =  -7.66061276635810E-08  9.27009401586145E+00
 cg2d: Sum(rhs),rhsMax =  -7.66378391858780E-08  9.26621534803516E+00
 cg2d: Sum(rhs),rhsMax =  -7.66705383625776E-08  9.26228766593419E+00
 cg2d: Sum(rhs),rhsMax =  -7.67030741144481E-08  9.25830830078040E+00
 cg2d: Sum(rhs),rhsMax =  -7.67362919873449E-08  9.25427464244149E+00
 cg2d: Sum(rhs),rhsMax =  -7.67699646075926E-08  9.25018420208542E+00
 cg2d: Sum(rhs),rhsMax =  -7.68039853937807E-08  9.24603467114681E+00
 cg2d: Sum(rhs),rhsMax =  -7.68388872529613E-08  9.24182397900772E+00
 cg2d: Sum(rhs),rhsMax =  -7.68742154377833E-08  9.23755034859452E+00
 cg2d: Sum(rhs),rhsMax =  -7.69100552133750E-08  9.23321234366443E+00
 cg2d: Sum(rhs),rhsMax =  -7.69468400108053E-08  9.22880889968266E+00
 cg2d: Sum(rhs),rhsMax =  -7.69835182268253E-08  9.22433933197490E+00
 cg2d: Sum(rhs),rhsMax =  -7.70209354072904E-08  9.21980332836426E+00
 cg2d: Sum(rhs),rhsMax =  -7.70591341847648E-08  9.21520093492414E+00
 cg2d: Sum(rhs),rhsMax =  -7.70982282460864E-08  9.21053254057723E+00
 cg2d: Sum(rhs),rhsMax =  -7.71375923136475E-08  9.20579886154174E+00
 cg2d: Sum(rhs),rhsMax =  -7.71773187580038E-08  9.20100092277316E+00
 cg2d: Sum(rhs),rhsMax =  -7.72178623265063E-08  9.19614003508373E+00
 cg2d: Sum(rhs),rhsMax =  -7.72588606423597E-08  9.19121776376076E+00
 cg2d: Sum(rhs),rhsMax =  -7.73005126575299E-08  9.18623589368687E+00
 cg2d: Sum(rhs),rhsMax =  -7.73430812728293E-08  9.18119640414723E+00
 cg2d: Sum(rhs),rhsMax =  -7.73854154090259E-08  9.17610144209478E+00
 EXTERNAL_FIELDS_LOAD, it=   3600450 : Reading new data, i0,i1=    8    9 (prev=    7    8 )
 DIC_FIELDS_LOAD, it=   3600450 : Reading new data, i0,i1=    8    9 (prev=    7    8 )
 cg2d: Sum(rhs),rhsMax =  -7.74284956150950E-08  9.17095326904567E+00
 cg2d: Sum(rhs),rhsMax =  -7.74719595142415E-08  9.16576412699309E+00
 cg2d: Sum(rhs),rhsMax =  -7.75162902755255E-08  9.16054233368469E+00
 cg2d: Sum(rhs),rhsMax =  -7.75600952351851E-08  9.15529583959941E+00
 cg2d: Sum(rhs),rhsMax =  -7.76045467887343E-08  9.15003201693785E+00
 cg2d: Sum(rhs),rhsMax =  -7.76489557097193E-08  9.14475750599293E+00
 cg2d: Sum(rhs),rhsMax =  -7.76937127966448E-08  9.13947810620331E+00
 cg2d: Sum(rhs),rhsMax =  -7.77385196215619E-08  9.13419871539155E+00
 cg2d: Sum(rhs),rhsMax =  -7.77830635456667E-08  9.12892331307296E+00
 cg2d: Sum(rhs),rhsMax =  -7.78277424728913E-08  9.12365496001899E+00
 cg2d: Sum(rhs),rhsMax =  -7.78721371830216E-08  9.11839580250666E+00
 cg2d: Sum(rhs),rhsMax =  -7.79170150622122E-08  9.11314707861780E+00
 cg2d: Sum(rhs),rhsMax =  -7.79618360979839E-08  9.10790912686148E+00
 cg2d: Sum(rhs),rhsMax =  -7.80063302840972E-08  9.10268140327570E+00
 cg2d: Sum(rhs),rhsMax =  -7.80512792175614E-08  9.09746251290633E+00
 cg2d: Sum(rhs),rhsMax =  -7.80961926238888E-08  9.09225025831423E+00
 cg2d: Sum(rhs),rhsMax =  -7.81409141836775E-08  9.08704170372423E+00
 cg2d: Sum(rhs),rhsMax =  -7.81859057497059E-08  9.08183325412304E+00
 cg2d: Sum(rhs),rhsMax =  -7.82307836288965E-08  9.07662074967284E+00
 cg2d: Sum(rhs),rhsMax =  -7.82759315143267E-08  9.07139957792224E+00
 cg2d: Sum(rhs),rhsMax =  -7.83211078214663E-08  9.06616480379289E+00
 cg2d: Sum(rhs),rhsMax =  -7.83665612402729E-08  9.06091131197731E+00
 cg2d: Sum(rhs),rhsMax =  -7.84124978281397E-08  9.05563395765243E+00
 cg2d: Sum(rhs),rhsMax =  -7.84584273105793E-08  9.05032772066772E+00
 cg2d: Sum(rhs),rhsMax =  -7.85049394380621E-08  9.04498784959721E+00
 cg2d: Sum(rhs),rhsMax =  -7.85514657763997E-08  9.03960999802522E+00
 cg2d: Sum(rhs),rhsMax =  -7.85986244977721E-08  9.03419034933061E+00
 cg2d: Sum(rhs),rhsMax =  -7.86464653401708E-08  9.02872572370695E+00
 cg2d: Sum(rhs),rhsMax =  -7.86944696073988E-08  9.02321366240276E+00
 cg2d: Sum(rhs),rhsMax =  -7.87431417847984E-08  9.01765248043218E+00
 cg2d: Sum(rhs),rhsMax =  -7.87920484413007E-08  9.01204128366352E+00
 cg2d: Sum(rhs),rhsMax =  -7.88417082731030E-08  9.00637994805543E+00
 cg2d: Sum(rhs),rhsMax =  -7.88920360150769E-08  9.00066907167982E+00
 cg2d: Sum(rhs),rhsMax =  -7.89423353353413E-08  8.99490990653884E+00
 cg2d: Sum(rhs),rhsMax =  -7.89935867828717E-08  8.98910428085158E+00
 cg2d: Sum(rhs),rhsMax =  -7.90451721854879E-08  8.98325450032841E+00
 cg2d: Sum(rhs),rhsMax =  -7.90971625974635E-08  8.97736324616216E+00
 cg2d: Sum(rhs),rhsMax =  -7.91497498653371E-08  8.97143347490525E+00
 cg2d: Sum(rhs),rhsMax =  -7.92022945006465E-08  8.96546832283943E+00
 cg2d: Sum(rhs),rhsMax =  -7.92553649375805E-08  8.95947101876645E+00
 cg2d: Sum(rhs),rhsMax =  -7.93088545947285E-08  8.95344480865740E+00
 cg2d: Sum(rhs),rhsMax =  -7.93626284689708E-08  8.94739288844395E+00
 cg2d: Sum(rhs),rhsMax =  -7.94164307649226E-08  8.94131834581199E+00
 cg2d: Sum(rhs),rhsMax =  -7.94707304407893E-08  8.93522409346950E+00
 cg2d: Sum(rhs),rhsMax =  -7.95254209151608E-08  8.92911278517729E+00
 cg2d: Sum(rhs),rhsMax =  -7.95802961306435E-08  8.92298675820892E+00
 cg2d: Sum(rhs),rhsMax =  -7.96350860809980E-08  8.91684802723521E+00
 cg2d: Sum(rhs),rhsMax =  -7.96901744593015E-08  8.91069816303900E+00
 cg2d: Sum(rhs),rhsMax =  -7.97458028500841E-08  8.90453822689960E+00
 cg2d: Sum(rhs),rhsMax =  -7.98008059632593E-08  8.89836886679347E+00
 cg2d: Sum(rhs),rhsMax =  -6.73150111651921E-07  8.89219071262868E+00
 cg2d: Sum(rhs),rhsMax =  -6.73618664848163E-07  8.88600348575551E+00
 cg2d: Sum(rhs),rhsMax =  -6.74088937557826E-07  8.87980749814633E+00
 cg2d: Sum(rhs),rhsMax =  -6.74560361346721E-07  8.87360258984193E+00
 cg2d: Sum(rhs),rhsMax =  -6.75033277275361E-07  8.86738800732547E+00
 cg2d: Sum(rhs),rhsMax =  -6.75507905611994E-07  8.86116266088018E+00
 cg2d: Sum(rhs),rhsMax =  -6.75983734765850E-07  8.85492530462539E+00
 cg2d: Sum(rhs),rhsMax =  -6.76461702653341E-07  8.84867457564944E+00
 cg2d: Sum(rhs),rhsMax =  -6.76941041888313E-07  8.84240699622413E+00
 cg2d: Sum(rhs),rhsMax =  -6.77422669070893E-07  8.83611974635838E+00
 cg2d: Sum(rhs),rhsMax =  -6.73150111651921E-07  8.89219071262868E+00
 cg2d: Sum(rhs),rhsMax =  -6.73618664848163E-07  8.88600348575551E+00
 cg2d: Sum(rhs),rhsMax =  -6.74088937557826E-07  8.87980749814633E+00
 cg2d: Sum(rhs),rhsMax =  -6.74560361346721E-07  8.87360258984193E+00
 cg2d: Sum(rhs),rhsMax =  -6.75033277275361E-07  8.86738800732547E+00
 cg2d: Sum(rhs),rhsMax =  -6.75507905611994E-07  8.86116266088018E+00
 cg2d: Sum(rhs),rhsMax =  -6.75983734765850E-07  8.85492530462539E+00
 cg2d: Sum(rhs),rhsMax =  -6.76461702653341E-07  8.84867457564944E+00
 cg2d: Sum(rhs),rhsMax =  -6.76941041888313E-07  8.84240699622413E+00
 cg2d: Sum(rhs),rhsMax =  -9.77638009658222E-07  8.83611952866312E+00
 cg2d: Sum(rhs),rhsMax =   4.96178098607913E-12  2.22831121010621E-02
 cg2d: Sum(rhs),rhsMax =  -6.73150111651921E-07  8.89219071262868E+00
 cg2d: Sum(rhs),rhsMax =  -6.73618664848163E-07  8.88600348575551E+00
 cg2d: Sum(rhs),rhsMax =  -6.74088937557826E-07  8.87980749814633E+00
 cg2d: Sum(rhs),rhsMax =  -6.74560361346721E-07  8.87360258984193E+00
 cg2d: Sum(rhs),rhsMax =  -6.75033277275361E-07  8.86738800732547E+00
 cg2d: Sum(rhs),rhsMax =  -6.75507905611994E-07  8.86116266088018E+00
 cg2d: Sum(rhs),rhsMax =  -6.75983734765850E-07  8.85492530462539E+00
 cg2d: Sum(rhs),rhsMax =  -6.76461702653341E-07  8.84867457564944E+00
 cg2d: Sum(rhs),rhsMax =  -1.47276683293285E-06  8.84240678895006E+00
 cg2d: Sum(rhs),rhsMax =   4.97446528413548E-12  2.26190334116516E-02
 cg2d: Sum(rhs),rhsMax =  -6.73150111651921E-07  8.89219071262868E+00
 cg2d: Sum(rhs),rhsMax =  -6.73618664848163E-07  8.88600348575551E+00
 cg2d: Sum(rhs),rhsMax =  -6.74088937557826E-07  8.87980749814633E+00
 cg2d: Sum(rhs),rhsMax =  -6.74560361346721E-07  8.87360258984193E+00
 cg2d: Sum(rhs),rhsMax =  -6.75033277275361E-07  8.86738800732547E+00
 cg2d: Sum(rhs),rhsMax =  -6.75507905611994E-07  8.86116266088018E+00
 cg2d: Sum(rhs),rhsMax =  -6.75983734765850E-07  8.85492530462539E+00
 cg2d: Sum(rhs),rhsMax =  -1.45265607187639E-06  8.84867440021126E+00
 cg2d: Sum(rhs),rhsMax =   5.25746113311243E-12  2.22664816978773E-02
 cg2d: Sum(rhs),rhsMax =  -6.73150111651921E-07  8.89219071262868E+00
 cg2d: Sum(rhs),rhsMax =  -6.73618664848163E-07  8.88600348575551E+00
 cg2d: Sum(rhs),rhsMax =  -6.74088937557826E-07  8.87980749814633E+00
 cg2d: Sum(rhs),rhsMax =  -6.74560361346721E-07  8.87360258984193E+00
 cg2d: Sum(rhs),rhsMax =  -6.75033277275361E-07  8.86738800732547E+00
 cg2d: Sum(rhs),rhsMax =  -6.75507905611994E-07  8.86116266088018E+00
 cg2d: Sum(rhs),rhsMax =  -1.03730774725364E-06  8.85492503160012E+00
 cg2d: Sum(rhs),rhsMax =   5.28452281933767E-12  2.22944636229220E-02
 cg2d: Sum(rhs),rhsMax =  -6.73150111651921E-07  8.89219071262868E+00
 cg2d: Sum(rhs),rhsMax =  -6.73618664848163E-07  8.88600348575551E+00
 cg2d: Sum(rhs),rhsMax =  -6.74088937557826E-07  8.87980749814633E+00
 cg2d: Sum(rhs),rhsMax =  -6.74560361346721E-07  8.87360258984193E+00
 cg2d: Sum(rhs),rhsMax =  -6.75033277275361E-07  8.86738800732547E+00
 cg2d: Sum(rhs),rhsMax =   2.66902738133012E-07  8.86116234105905E+00
 cg2d: Sum(rhs),rhsMax =   4.94174146048465E-12  2.42271906177809E-02
 cg2d: Sum(rhs),rhsMax =  -6.73150111651921E-07  8.89219071262868E+00
 cg2d: Sum(rhs),rhsMax =  -6.73618664848163E-07  8.88600348575551E+00
 cg2d: Sum(rhs),rhsMax =  -6.74088937557826E-07  8.87980749814633E+00
 cg2d: Sum(rhs),rhsMax =  -6.74560361346721E-07  8.87360258984193E+00
 cg2d: Sum(rhs),rhsMax =  -6.23324048376617E-07  8.86738803813842E+00
 cg2d: Sum(rhs),rhsMax =   4.96708230102172E-12  2.47237004563957E-02
 cg2d: Sum(rhs),rhsMax =  -6.73150111651921E-07  8.89219071262868E+00
 cg2d: Sum(rhs),rhsMax =  -6.73618664848163E-07  8.88600348575551E+00
 cg2d: Sum(rhs),rhsMax =  -6.74088937557826E-07  8.87980749814633E+00
 cg2d: Sum(rhs),rhsMax =  -1.43233474148019E-06  8.87360238451195E+00
 cg2d: Sum(rhs),rhsMax =   5.08978970081841E-12  2.43957167370815E-02
 cg2d: Sum(rhs),rhsMax =  -6.73150111651921E-07  8.89219071262868E+00
 cg2d: Sum(rhs),rhsMax =  -6.73618664848163E-07  8.88600348575551E+00
 cg2d: Sum(rhs),rhsMax =  -8.68226436523400E-07  8.87980725852737E+00
 cg2d: Sum(rhs),rhsMax =   5.33559307847042E-12  2.39053496172652E-02
 cg2d: Sum(rhs),rhsMax =  -6.73150111651921E-07  8.89219071262868E+00
 cg2d: Sum(rhs),rhsMax =  -1.04559114078029E-06  8.88600380916007E+00
 cg2d: Sum(rhs),rhsMax =   5.50490208972576E-12  2.35203680874764E-02
 cg2d: Sum(rhs),rhsMax =  -6.73150040597648E-07  8.89219071264378E+00
 cg2d: Sum(rhs),rhsMax =   5.61692359291044E-12  2.32172567254430E-02
 cg2d: Sum(rhs),rhsMax =  -7.46576347410155E-08  9.50907671569018E+00
 cg2d: Sum(rhs),rhsMax =  -7.46636956705515E-08  9.50827538007810E+00
 cg2d: Sum(rhs),rhsMax =  -7.46696002806857E-08  9.50759038673436E+00
 cg2d: Sum(rhs),rhsMax =  -7.46738635371003E-08  9.50702164848735E+00
 cg2d: Sum(rhs),rhsMax =  -7.46774944104800E-08  9.50656668487862E+00
 cg2d: Sum(rhs),rhsMax =  -7.46800878914655E-08  9.50622069715104E+00
 cg2d: Sum(rhs),rhsMax =  -7.46821626762539E-08  9.50597670066013E+00
 cg2d: Sum(rhs),rhsMax =  -7.46832924392038E-08  9.50582571630982E+00
 cg2d: Sum(rhs),rhsMax =  -7.46840456145037E-08  9.50575700943737E+00
 cg2d: Sum(rhs),rhsMax =  -7.46835624454434E-08  9.50575837107225E+00
 cg2d: Sum(rhs),rhsMax =  -7.46833208609132E-08  9.50581645922263E+00
 cg2d: Sum(rhs),rhsMax =  -7.46821982033907E-08  9.50591711991761E+00
 cg2d: Sum(rhs),rhsMax =  -7.46813526575352E-08  9.50604571310823E+00
 cg2d: Sum(rhs),rhsMax =  -7.46798960449269E-08  9.50618745972881E+00
 cg2d: Sum(rhs),rhsMax =  -7.46791073424902E-08  9.50632780119137E+00
 cg2d: Sum(rhs),rhsMax =  -7.46779846849677E-08  9.50645275158785E+00
 cg2d: Sum(rhs),rhsMax =  -7.46776720461639E-08  9.50654922994562E+00
 cg2d: Sum(rhs),rhsMax =  -7.46771249282574E-08  9.50660536798306E+00
 cg2d: Sum(rhs),rhsMax =  -7.46771320336848E-08  9.50661078108177E+00
 cg2d: Sum(rhs),rhsMax =  -7.46778141547111E-08  9.50655679154863E+00
 cg2d: Sum(rhs),rhsMax =  -7.46784394323186E-08  9.50643658250018E+00
 cg2d: Sum(rhs),rhsMax =  -7.46802726325768E-08  9.50624530490270E+00
 cg2d: Sum(rhs),rhsMax =  -7.46821271491172E-08  9.50598009866199E+00
 cg2d: Sum(rhs),rhsMax =  -7.46850545851885E-08  9.50564005870858E+00
 cg2d: Sum(rhs),rhsMax =  -7.46883372926277E-08  9.50522619443621E+00
 cg2d: Sum(rhs),rhsMax =  -7.46918829008791E-08  9.50474133855045E+00
 cg2d: Sum(rhs),rhsMax =  -7.46962030007126E-08  9.50418990415982E+00
 cg2d: Sum(rhs),rhsMax =  -7.47013260138374E-08  9.50357767429962E+00
 cg2d: Sum(rhs),rhsMax =  -7.47062216532868E-08  9.50291163791579E+00
 cg2d: Sum(rhs),rhsMax =  -7.47126236433360E-08  9.50219980056318E+00
 cg2d: Sum(rhs),rhsMax =  -7.47184074612051E-08  9.50145094748729E+00
 cg2d: Sum(rhs),rhsMax =  -7.47247455024080E-08  9.50067438045622E+00
 cg2d: Sum(rhs),rhsMax =  -7.47313322335685E-08  9.49987965703835E+00
 cg2d: Sum(rhs),rhsMax =  -7.47377768561819E-08  9.49907634096511E+00
 cg2d: Sum(rhs),rhsMax =  -7.47441433190943E-08  9.49827377465974E+00
 cg2d: Sum(rhs),rhsMax =  -7.47505310982888E-08  9.49748086980356E+00
 cg2d: Sum(rhs),rhsMax =  -7.47569046666285E-08  9.49670591827534E+00
 cg2d: Sum(rhs),rhsMax =  -7.47627666441986E-08  9.49595642566026E+00
 cg2d: Sum(rhs),rhsMax =  -7.47686570434780E-08  9.49523896197083E+00
 cg2d: Sum(rhs),rhsMax =  -7.47742205930990E-08  9.49455904201468E+00
 cg2d: Sum(rhs),rhsMax =  -7.47793578170786E-08  9.49392104808525E+00
 cg2d: Sum(rhs),rhsMax =  -7.47843102999468E-08  9.49332815058320E+00
 cg2d: Sum(rhs),rhsMax =  -7.47889217223019E-08  9.49278226320107E+00
 cg2d: Sum(rhs),rhsMax =  -7.47930855027334E-08  9.49228403703651E+00
 cg2d: Sum(rhs),rhsMax =  -7.47963611047453E-08  9.49183288684206E+00
 cg2d: Sum(rhs),rhsMax =  -7.48000417161165E-08  9.49142705076112E+00
 cg2d: Sum(rhs),rhsMax =  -7.48029052033417E-08  9.49106366991647E+00
 cg2d: Sum(rhs),rhsMax =  -7.48058113231309E-08  9.49073888097194E+00
 cg2d: Sum(rhs),rhsMax =  -7.48079642676203E-08  9.49044792286002E+00
 cg2d: Sum(rhs),rhsMax =  -7.48104369563407E-08  9.49018527463466E+00
 EXTERNAL_FIELDS_LOAD, it=   3600330 : Reading new data, i0,i1=    6    7 (prev=    5    9 )
 DIC_FIELDS_LOAD, it=   3600330 : Reading new data, i0,i1=    6    7 (prev=    5    6 )
 cg2d: Sum(rhs),rhsMax =  -7.48125685845480E-08  9.48994481428126E+00
 cg2d: Sum(rhs),rhsMax =  -7.48145367879260E-08  9.48970977028949E+00
 cg2d: Sum(rhs),rhsMax =  -7.48167536812616E-08  9.48946667050908E+00
 cg2d: Sum(rhs),rhsMax =  -7.48186579357935E-08  9.48920195983684E+00
 cg2d: Sum(rhs),rhsMax =  -7.48212727330611E-08  9.48890231838115E+00
 cg2d: Sum(rhs),rhsMax =  -7.48240864822947E-08  9.48855490239494E+00
 cg2d: Sum(rhs),rhsMax =  -7.48277528828112E-08  9.48814760448955E+00
 cg2d: Sum(rhs),rhsMax =  -7.48317106058494E-08  9.48766929469714E+00
 cg2d: Sum(rhs),rhsMax =  -7.48361301816658E-08  9.48711003726197E+00
 cg2d: Sum(rhs),rhsMax =  -7.48412745110727E-08  9.48646127184076E+00
 cg2d: Sum(rhs),rhsMax =  -7.48473496514634E-08  9.48571598443359E+00
 cg2d: Sum(rhs),rhsMax =  -7.48540713857437E-08  9.48486884714226E+00
 cg2d: Sum(rhs),rhsMax =  -7.48618091961362E-08  9.48391631089758E+00
 cg2d: Sum(rhs),rhsMax =  -7.48703143926832E-08  9.48285664384895E+00
 cg2d: Sum(rhs),rhsMax =  -7.48790469629057E-08  9.48168991622247E+00
 cg2d: Sum(rhs),rhsMax =  -7.48895487845402E-08  9.48041794354397E+00
 cg2d: Sum(rhs),rhsMax =  -7.49003561395511E-08  9.47904418707887E+00
 cg2d: Sum(rhs),rhsMax =  -7.49121227272553E-08  9.47757361133926E+00
 cg2d: Sum(rhs),rhsMax =  -7.49249196019264E-08  9.47601250495736E+00
 cg2d: Sum(rhs),rhsMax =  -7.49377875308710E-08  9.47436827146146E+00
 cg2d: Sum(rhs),rhsMax =  -7.49514157405429E-08  9.47264919973884E+00
 cg2d: Sum(rhs),rhsMax =  -7.49656123844034E-08  9.47086422427234E+00
 cg2d: Sum(rhs),rhsMax =  -7.49802140376232E-08  9.46902267691356E+00
 cg2d: Sum(rhs),rhsMax =  -7.49953059653308E-08  9.46713403481286E+00
 cg2d: Sum(rhs),rhsMax =  -7.50105257907308E-08  9.46520767024855E+00
 cg2d: Sum(rhs),rhsMax =  -7.50263424720288E-08  9.46325259778073E+00
 cg2d: Sum(rhs),rhsMax =  -7.50422373130277E-08  9.46127726524814E+00
 cg2d: Sum(rhs),rhsMax =  -7.50577768826588E-08  9.45928937477588E+00
 cg2d: Sum(rhs),rhsMax =  -7.50738990973332E-08  9.45729571583441E+00
 cg2d: Sum(rhs),rhsMax =  -7.50896163026482E-08  9.45530206338839E+00
 cg2d: Sum(rhs),rhsMax =  -7.51056461467670E-08  9.45331309804778E+00
 cg2d: Sum(rhs),rhsMax =  -7.51212709815263E-08  9.45133234916556E+00
 cg2d: Sum(rhs),rhsMax =  -7.51373789853460E-08  9.44936217148271E+00
 cg2d: Sum(rhs),rhsMax =  -7.51527906572846E-08  9.44740375781686E+00
 cg2d: Sum(rhs),rhsMax =  -7.51685931277279E-08  9.44545718748645E+00
 cg2d: Sum(rhs),rhsMax =  -7.51841966462052E-08  9.44352151007986E+00
 cg2d: Sum(rhs),rhsMax =  -7.51994591041694E-08  9.44159486329961E+00
 cg2d: Sum(rhs),rhsMax =  -7.52147784055524E-08  9.43967460290015E+00
 cg2d: Sum(rhs),rhsMax =  -7.52305737705683E-08  9.43775744343237E+00
 cg2d: Sum(rhs),rhsMax =  -7.52457793851136E-08  9.43583960877673E+00
 cg2d: Sum(rhs),rhsMax =  -7.52614752741465E-08  9.43391698185443E+00
 cg2d: Sum(rhs),rhsMax =  -7.52768585243757E-08  9.43198524752366E+00
 cg2d: Sum(rhs),rhsMax =  -7.52925899405454E-08  9.43004003060471E+00
 cg2d: Sum(rhs),rhsMax =  -7.53084705706897E-08  9.42807701983885E+00
 cg2d: Sum(rhs),rhsMax =  -7.53246993667744E-08  9.42609207475689E+00
 cg2d: Sum(rhs),rhsMax =  -7.53408997411498E-08  9.42408132282525E+00
 cg2d: Sum(rhs),rhsMax =  -7.53572138023628E-08  9.42204124662806E+00
 cg2d: Sum(rhs),rhsMax =  -7.53741673520381E-08  9.41996876781019E+00
 cg2d: Sum(rhs),rhsMax =  -7.53910782691491E-08  9.41786131641806E+00
 cg2d: Sum(rhs),rhsMax =  -7.54086713072866E-08  9.41571688244791E+00
 cg2d: Sum(rhs),rhsMax =  -7.54266125113645E-08  9.41353407021840E+00
 cg2d: Sum(rhs),rhsMax =  -7.54444755557415E-08  9.41131216516102E+00
 cg2d: Sum(rhs),rhsMax =  -7.54630704591364E-08  9.40905115996980E+00
 cg2d: Sum(rhs),rhsMax =  -7.54816795733859E-08  9.40675174533744E+00
 cg2d: Sum(rhs),rhsMax =  -7.55005373775930E-08  9.40441527809810E+00
 cg2d: Sum(rhs),rhsMax =  -7.55200275648349E-08  9.40204373790542E+00
 cg2d: Sum(rhs),rhsMax =  -7.55398446017352E-08  9.39963967991296E+00
 cg2d: Sum(rhs),rhsMax =  -7.55594129486781E-08  9.39720618276624E+00
 cg2d: Sum(rhs),rhsMax =  -7.55797202600661E-08  9.39474678273504E+00
 cg2d: Sum(rhs),rhsMax =  -7.56002052071381E-08  9.39226540565015E+00
 EXTERNAL_FIELDS_LOAD, it=   3600390 : Reading new data, i0,i1=    7    8 (prev=    6    7 )
 DIC_FIELDS_LOAD, it=   3600390 : Reading new data, i0,i1=    7    8 (prev=    6    7 )
 cg2d: Sum(rhs),rhsMax =  -7.56204627805346E-08  9.38976628030644E+00
 cg2d: Sum(rhs),rhsMax =  -7.56415232672225E-08  9.38724775533259E+00
 cg2d: Sum(rhs),rhsMax =  -7.56618732111747E-08  9.38470942901966E+00
 cg2d: Sum(rhs),rhsMax =  -7.56830758064098E-08  9.38215030318780E+00
 cg2d: Sum(rhs),rhsMax =  -7.57043636667731E-08  9.37956883924381E+00
 cg2d: Sum(rhs),rhsMax =  -7.57257581085469E-08  9.37696305631202E+00
 cg2d: Sum(rhs),rhsMax =  -7.57472449208763E-08  9.37433065622099E+00
 cg2d: Sum(rhs),rhsMax =  -7.57689306851717E-08  9.37166915330181E+00
 cg2d: Sum(rhs),rhsMax =  -7.57913838356217E-08  9.36897600473142E+00
 cg2d: Sum(rhs),rhsMax =  -7.58139293566273E-08  9.36624871729081E+00
 cg2d: Sum(rhs),rhsMax =  -7.58368727815650E-08  9.36348495363947E+00
 cg2d: Sum(rhs),rhsMax =  -7.58596883088103E-08  9.36068261643794E+00
 cg2d: Sum(rhs),rhsMax =  -7.58831930625092E-08  9.35783991548456E+00
 cg2d: Sum(rhs),rhsMax =  -7.59071596689864E-08  9.35495541522523E+00
 cg2d: Sum(rhs),rhsMax =  -7.59316307608060E-08  9.35202806312956E+00
 cg2d: Sum(rhs),rhsMax =  -7.59561444851897E-08  9.34905718311665E+00
 cg2d: Sum(rhs),rhsMax =  -7.59807505801291E-08  9.34604244734688E+00
 cg2d: Sum(rhs),rhsMax =  -7.60062519589155E-08  9.34298385173757E+00
 cg2d: Sum(rhs),rhsMax =  -7.60316041237274E-08  9.33988171405705E+00
 cg2d: Sum(rhs),rhsMax =  -7.60576810421298E-08  9.33673667089172E+00
 cg2d: Sum(rhs),rhsMax =  -7.60842198133105E-08  9.33354966433849E+00
 cg2d: Sum(rhs),rhsMax =  -7.61109362201751E-08  9.33032189428481E+00
 cg2d: Sum(rhs),rhsMax =  -7.61379794766981E-08  9.32705473610878E+00
 cg2d: Sum(rhs),rhsMax =  -7.61650014169390E-08  9.32374964223594E+00
 cg2d: Sum(rhs),rhsMax =  -7.61924070502573E-08  9.32040805771324E+00
 cg2d: Sum(rhs),rhsMax =  -7.62202390092170E-08  9.31703133797851E+00
 cg2d: Sum(rhs),rhsMax =  -7.62486536132201E-08  9.31362068532222E+00
 cg2d: Sum(rhs),rhsMax =  -7.62769758466675E-08  9.31017709807696E+00
 cg2d: Sum(rhs),rhsMax =  -7.63053833452432E-08  9.30670132260387E+00
 cg2d: Sum(rhs),rhsMax =  -7.63343095400160E-08  9.30319380786966E+00
 cg2d: Sum(rhs),rhsMax =  -7.63631078370963E-08  9.29965466644313E+00
 cg2d: Sum(rhs),rhsMax =  -7.63924603575106E-08  9.29608366095666E+00
 cg2d: Sum(rhs),rhsMax =  -7.64222036764295E-08  9.29248016366683E+00
 cg2d: Sum(rhs),rhsMax =  -7.64520393659041E-08  9.28884314276847E+00
 cg2d: Sum(rhs),rhsMax =  -7.64822445376012E-08  9.28517117681256E+00
 cg2d: Sum(rhs),rhsMax =  -7.65125633961361E-08  9.28146248933914E+00
 cg2d: Sum(rhs),rhsMax =  -7.65432446314662E-08  9.27771499430064E+00
 cg2d: Sum(rhs),rhsMax =  -7.65746861475236E-08  9.27392634829171E+00
 cg2d: Sum(rhs),rhsMax =  -7.66061276635810E-08  9.27009401586145E+00
 cg2d: Sum(rhs),rhsMax =  -7.66378391858780E-08  9.26621534803516E+00
 cg2d: Sum(rhs),rhsMax =  -7.66705383625776E-08  9.26228766593419E+00
 cg2d: Sum(rhs),rhsMax =  -7.67030741144481E-08  9.25830830078040E+00
 cg2d: Sum(rhs),rhsMax =  -7.67362919873449E-08  9.25427464244149E+00
 cg2d: Sum(rhs),rhsMax =  -7.67699646075926E-08  9.25018420208542E+00
 cg2d: Sum(rhs),rhsMax =  -7.68039853937807E-08  9.24603467114681E+00
 cg2d: Sum(rhs),rhsMax =  -7.68388872529613E-08  9.24182397900772E+00
 cg2d: Sum(rhs),rhsMax =  -7.68742154377833E-08  9.23755034859452E+00
 cg2d: Sum(rhs),rhsMax =  -7.69100552133750E-08  9.23321234366443E+00
 cg2d: Sum(rhs),rhsMax =  -7.69468400108053E-08  9.22880889968266E+00
 cg2d: Sum(rhs),rhsMax =  -7.69835182268253E-08  9.22433933197490E+00
 cg2d: Sum(rhs),rhsMax =  -7.70209354072904E-08  9.21980332836426E+00
 cg2d: Sum(rhs),rhsMax =  -7.70591341847648E-08  9.21520093492414E+00
 cg2d: Sum(rhs),rhsMax =  -7.70982282460864E-08  9.21053254057723E+00
 cg2d: Sum(rhs),rhsMax =  -7.71375923136475E-08  9.20579886154174E+00
 cg2d: Sum(rhs),rhsMax =  -7.71773187580038E-08  9.20100092277316E+00
 cg2d: Sum(rhs),rhsMax =  -7.72178623265063E-08  9.19614003508373E+00
 cg2d: Sum(rhs),rhsMax =  -7.72588606423597E-08  9.19121776376076E+00
 cg2d: Sum(rhs),rhsMax =  -7.73005126575299E-08  9.18623589368687E+00
 cg2d: Sum(rhs),rhsMax =  -7.73430812728293E-08  9.18119640414723E+00
 cg2d: Sum(rhs),rhsMax =  -7.73854154090259E-08  9.17610144209478E+00
 EXTERNAL_FIELDS_LOAD, it=   3600450 : Reading new data, i0,i1=    8    9 (prev=    7    8 )
 DIC_FIELDS_LOAD, it=   3600450 : Reading new data, i0,i1=    8    9 (prev=    7    8 )
 cg2d: Sum(rhs),rhsMax =  -7.74284956150950E-08  9.17095326904567E+00
 cg2d: Sum(rhs),rhsMax =  -7.74719595142415E-08  9.16576412699309E+00
 cg2d: Sum(rhs),rhsMax =  -7.75162902755255E-08  9.16054233368469E+00
 cg2d: Sum(rhs),rhsMax =  -7.75600952351851E-08  9.15529583959941E+00
 cg2d: Sum(rhs),rhsMax =  -7.76045467887343E-08  9.15003201693785E+00
 cg2d: Sum(rhs),rhsMax =  -7.76489557097193E-08  9.14475750599293E+00
 cg2d: Sum(rhs),rhsMax =  -7.76937127966448E-08  9.13947810620331E+00
 cg2d: Sum(rhs),rhsMax =  -7.77385196215619E-08  9.13419871539155E+00
 cg2d: Sum(rhs),rhsMax =  -7.77830635456667E-08  9.12892331307296E+00
 cg2d: Sum(rhs),rhsMax =  -7.78277424728913E-08  9.12365496001899E+00
 cg2d: Sum(rhs),rhsMax =  -7.78721371830216E-08  9.11839580250666E+00
 cg2d: Sum(rhs),rhsMax =  -7.79170150622122E-08  9.11314707861780E+00
 cg2d: Sum(rhs),rhsMax =  -7.79618360979839E-08  9.10790912686148E+00
 cg2d: Sum(rhs),rhsMax =  -7.80063302840972E-08  9.10268140327570E+00
 cg2d: Sum(rhs),rhsMax =  -7.80512792175614E-08  9.09746251290633E+00
 cg2d: Sum(rhs),rhsMax =  -7.80961926238888E-08  9.09225025831423E+00
 cg2d: Sum(rhs),rhsMax =  -7.81409141836775E-08  9.08704170372423E+00
 cg2d: Sum(rhs),rhsMax =  -7.81859057497059E-08  9.08183325412304E+00
 cg2d: Sum(rhs),rhsMax =  -7.82307836288965E-08  9.07662074967284E+00
 cg2d: Sum(rhs),rhsMax =  -7.82759315143267E-08  9.07139957792224E+00
 cg2d: Sum(rhs),rhsMax =  -7.83211078214663E-08  9.06616480379289E+00
 cg2d: Sum(rhs),rhsMax =  -7.83665612402729E-08  9.06091131197731E+00
 cg2d: Sum(rhs),rhsMax =  -7.84124978281397E-08  9.05563395765243E+00
 cg2d: Sum(rhs),rhsMax =  -7.84584273105793E-08  9.05032772066772E+00
 cg2d: Sum(rhs),rhsMax =  -7.85049394380621E-08  9.04498784959721E+00
 cg2d: Sum(rhs),rhsMax =  -7.85514657763997E-08  9.03960999802522E+00
 cg2d: Sum(rhs),rhsMax =  -7.85986244977721E-08  9.03419034933061E+00
 cg2d: Sum(rhs),rhsMax =  -7.86464653401708E-08  9.02872572370695E+00
 cg2d: Sum(rhs),rhsMax =  -7.86944696073988E-08  9.02321366240276E+00
 cg2d: Sum(rhs),rhsMax =  -7.87431417847984E-08  9.01765248043218E+00
 cg2d: Sum(rhs),rhsMax =  -7.87920484413007E-08  9.01204128366352E+00
 cg2d: Sum(rhs),rhsMax =  -7.88417082731030E-08  9.00637994805543E+00
 cg2d: Sum(rhs),rhsMax =  -7.88920360150769E-08  9.00066907167982E+00
 cg2d: Sum(rhs),rhsMax =  -7.89423353353413E-08  8.99490990653884E+00
 cg2d: Sum(rhs),rhsMax =  -7.89935867828717E-08  8.98910428085158E+00
 cg2d: Sum(rhs),rhsMax =  -7.90451721854879E-08  8.98325450032841E+00
 cg2d: Sum(rhs),rhsMax =  -7.90971625974635E-08  8.97736324616216E+00
 cg2d: Sum(rhs),rhsMax =  -7.91497498653371E-08  8.97143347490525E+00
 cg2d: Sum(rhs),rhsMax =  -7.92022945006465E-08  8.96546832283943E+00
 cg2d: Sum(rhs),rhsMax =  -7.92553649375805E-08  8.95947101876645E+00
 cg2d: Sum(rhs),rhsMax =  -5.01132767283252E-07  8.95344496348763E+00
 cg2d: Sum(rhs),rhsMax =  -5.01471767222483E-07  8.94739304079781E+00
 cg2d: Sum(rhs),rhsMax =  -5.01813026687614E-07  8.94131849580239E+00
 cg2d: Sum(rhs),rhsMax =  -5.02154890114070E-07  8.93522423192200E+00
 cg2d: Sum(rhs),rhsMax =  -5.02499041488136E-07  8.92911289187465E+00
 cg2d: Sum(rhs),rhsMax =  -5.02844379468570E-07  8.92298680685406E+00
 cg2d: Sum(rhs),rhsMax =  -5.03190292988620E-07  8.91684799201788E+00
 cg2d: Sum(rhs),rhsMax =  -5.03537769702689E-07  8.91069802311896E+00
 cg2d: Sum(rhs),rhsMax =  -5.03886354863425E-07  8.90453796816757E+00
 cg2d: Sum(rhs),rhsMax =  -5.04235693199462E-07  8.89836848170243E+00
 cg2d: Sum(rhs),rhsMax =  -5.01132767283252E-07  8.95344496348763E+00
 cg2d: Sum(rhs),rhsMax =  -5.01471767222483E-07  8.94739304079781E+00
 cg2d: Sum(rhs),rhsMax =  -5.01813026687614E-07  8.94131849580239E+00
 cg2d: Sum(rhs),rhsMax =  -5.02154890114070E-07  8.93522423192200E+00
 cg2d: Sum(rhs),rhsMax =  -5.02499041488136E-07  8.92911289187465E+00
 cg2d: Sum(rhs),rhsMax =  -5.02844379468570E-07  8.92298680685406E+00
 cg2d: Sum(rhs),rhsMax =  -5.03190292988620E-07  8.91684799201788E+00
 cg2d: Sum(rhs),rhsMax =  -5.03537769702689E-07  8.91069802311896E+00
 cg2d: Sum(rhs),rhsMax =  -5.03886354863425E-07  8.90453796816757E+00
 cg2d: Sum(rhs),rhsMax =  -1.10025713695450E-06  8.89836879629046E+00
 cg2d: Sum(rhs),rhsMax =   5.49132961324972E-12  2.39367012366344E-02
 cg2d: Sum(rhs),rhsMax =  -5.01132767283252E-07  8.95344496348763E+00
 cg2d: Sum(rhs),rhsMax =  -5.01471767222483E-07  8.94739304079781E+00
 cg2d: Sum(rhs),rhsMax =  -5.01813026687614E-07  8.94131849580239E+00
 cg2d: Sum(rhs),rhsMax =  -5.02154890114070E-07  8.93522423192200E+00
 cg2d: Sum(rhs),rhsMax =  -5.02499041488136E-07  8.92911289187465E+00
 cg2d: Sum(rhs),rhsMax =  -5.02844379468570E-07  8.92298680685406E+00
 cg2d: Sum(rhs),rhsMax =  -5.03190292988620E-07  8.91684799201788E+00
 cg2d: Sum(rhs),rhsMax =  -5.03537769702689E-07  8.91069802311896E+00
 cg2d: Sum(rhs),rhsMax =  -7.77302147980663E-07  8.90453780044940E+00
 cg2d: Sum(rhs),rhsMax =   5.41078293281316E-12  2.46851646706630E-02
 cg2d: Sum(rhs),rhsMax =  -5.01132767283252E-07  8.95344496348763E+00
 cg2d: Sum(rhs),rhsMax =  -5.01471767222483E-07  8.94739304079781E+00
 cg2d: Sum(rhs),rhsMax =  -5.01813026687614E-07  8.94131849580239E+00
 cg2d: Sum(rhs),rhsMax =  -5.02154890114070E-07  8.93522423192200E+00
 cg2d: Sum(rhs),rhsMax =  -5.02499041488136E-07  8.92911289187465E+00
 cg2d: Sum(rhs),rhsMax =  -5.02844379468570E-07  8.92298680685406E+00
 cg2d: Sum(rhs),rhsMax =  -5.03190292988620E-07  8.91684799201788E+00
 cg2d: Sum(rhs),rhsMax =  -1.02901607590411E-06  8.91069792619583E+00
 cg2d: Sum(rhs),rhsMax =   5.73291414340815E-12  2.40630098622812E-02
 cg2d: Sum(rhs),rhsMax =  -5.01132767283252E-07  8.95344496348763E+00
 cg2d: Sum(rhs),rhsMax =  -5.01471767222483E-07  8.94739304079781E+00
 cg2d: Sum(rhs),rhsMax =  -5.01813026687614E-07  8.94131849580239E+00
 cg2d: Sum(rhs),rhsMax =  -5.02154890114070E-07  8.93522423192200E+00
 cg2d: Sum(rhs),rhsMax =  -5.02499041488136E-07  8.92911289187465E+00
 cg2d: Sum(rhs),rhsMax =  -5.02844379468570E-07  8.92298680685406E+00
 cg2d: Sum(rhs),rhsMax =   5.50213698602420E-07  8.91684807487675E+00
 cg2d: Sum(rhs),rhsMax =   5.43162737010050E-12  2.56420107655964E-02
 cg2d: Sum(rhs),rhsMax =  -5.01132767283252E-07  8.95344496348763E+00
 cg2d: Sum(rhs),rhsMax =  -5.01471767222483E-07  8.94739304079781E+00
 cg2d: Sum(rhs),rhsMax =  -5.01813026687614E-07  8.94131849580239E+00
 cg2d: Sum(rhs),rhsMax =  -5.02154890114070E-07  8.93522423192200E+00
 cg2d: Sum(rhs),rhsMax =  -5.02499041488136E-07  8.92911289187465E+00
 cg2d: Sum(rhs),rhsMax =  -8.03302214080759E-07  8.92298714238460E+00
 cg2d: Sum(rhs),rhsMax =   5.46238054788262E-12  2.56325423622955E-02
 cg2d: Sum(rhs),rhsMax =  -5.01132767283252E-07  8.95344496348763E+00
 cg2d: Sum(rhs),rhsMax =  -5.01471767222483E-07  8.94739304079781E+00
 cg2d: Sum(rhs),rhsMax =  -5.01813026687614E-07  8.94131849580239E+00
 cg2d: Sum(rhs),rhsMax =  -5.02154890114070E-07  8.93522423192200E+00
 cg2d: Sum(rhs),rhsMax =   2.63410740330983E-07  8.92911319731489E+00
 cg2d: Sum(rhs),rhsMax =   5.72764058404118E-12  2.50743504430054E-02
 cg2d: Sum(rhs),rhsMax =  -5.01132767283252E-07  8.95344496348763E+00
 cg2d: Sum(rhs),rhsMax =  -5.01471767222483E-07  8.94739304079781E+00
 cg2d: Sum(rhs),rhsMax =  -5.01813026687614E-07  8.94131849580239E+00
 cg2d: Sum(rhs),rhsMax =  -5.18828855433640E-08  8.93522423207672E+00
 cg2d: Sum(rhs),rhsMax =   5.70349323325559E-12  2.53420455214594E-02
 cg2d: Sum(rhs),rhsMax =  -5.01132767283252E-07  8.95344496348763E+00
 cg2d: Sum(rhs),rhsMax =  -5.01471767222483E-07  8.94739304079781E+00
 cg2d: Sum(rhs),rhsMax =   1.17064885785112E-07  8.94131820613293E+00
 cg2d: Sum(rhs),rhsMax =   5.73163738692983E-12  2.51303424867429E-02
 cg2d: Sum(rhs),rhsMax =  -5.01132767283252E-07  8.95344496348763E+00
 cg2d: Sum(rhs),rhsMax =  -4.29067981144726E-08  8.94739301628195E+00
 cg2d: Sum(rhs),rhsMax =   6.02229377477670E-12  2.44831576646861E-02
 cg2d: Sum(rhs),rhsMax =  -5.01132916497227E-07  8.95344496354590E+00
 cg2d: Sum(rhs),rhsMax =   6.13120665349243E-12  2.42462987860753E-02
 cg2d: Sum(rhs),rhsMax =  -7.46576347410155E-08  9.50907671569018E+00
 cg2d: Sum(rhs),rhsMax =  -7.46636956705515E-08  9.50827538007810E+00
 cg2d: Sum(rhs),rhsMax =  -7.46696002806857E-08  9.50759038673436E+00
 cg2d: Sum(rhs),rhsMax =  -7.46738635371003E-08  9.50702164848735E+00
 cg2d: Sum(rhs),rhsMax =  -7.46774944104800E-08  9.50656668487862E+00
 cg2d: Sum(rhs),rhsMax =  -7.46800878914655E-08  9.50622069715104E+00
 cg2d: Sum(rhs),rhsMax =  -7.46821626762539E-08  9.50597670066013E+00
 cg2d: Sum(rhs),rhsMax =  -7.46832924392038E-08  9.50582571630982E+00
 cg2d: Sum(rhs),rhsMax =  -7.46840456145037E-08  9.50575700943737E+00
 cg2d: Sum(rhs),rhsMax =  -7.46835624454434E-08  9.50575837107225E+00
 cg2d: Sum(rhs),rhsMax =  -7.46833208609132E-08  9.50581645922263E+00
 cg2d: Sum(rhs),rhsMax =  -7.46821982033907E-08  9.50591711991761E+00
 cg2d: Sum(rhs),rhsMax =  -7.46813526575352E-08  9.50604571310823E+00
 cg2d: Sum(rhs),rhsMax =  -7.46798960449269E-08  9.50618745972881E+00
 cg2d: Sum(rhs),rhsMax =  -7.46791073424902E-08  9.50632780119137E+00
 cg2d: Sum(rhs),rhsMax =  -7.46779846849677E-08  9.50645275158785E+00
 cg2d: Sum(rhs),rhsMax =  -7.46776720461639E-08  9.50654922994562E+00
 cg2d: Sum(rhs),rhsMax =  -7.46771249282574E-08  9.50660536798306E+00
 cg2d: Sum(rhs),rhsMax =  -7.46771320336848E-08  9.50661078108177E+00
 cg2d: Sum(rhs),rhsMax =  -7.46778141547111E-08  9.50655679154863E+00
 cg2d: Sum(rhs),rhsMax =  -7.46784394323186E-08  9.50643658250018E+00
 cg2d: Sum(rhs),rhsMax =  -7.46802726325768E-08  9.50624530490270E+00
 cg2d: Sum(rhs),rhsMax =  -7.46821271491172E-08  9.50598009866199E+00
 cg2d: Sum(rhs),rhsMax =  -7.46850545851885E-08  9.50564005870858E+00
 cg2d: Sum(rhs),rhsMax =  -7.46883372926277E-08  9.50522619443621E+00
 cg2d: Sum(rhs),rhsMax =  -7.46918829008791E-08  9.50474133855045E+00
 cg2d: Sum(rhs),rhsMax =  -7.46962030007126E-08  9.50418990415982E+00
 cg2d: Sum(rhs),rhsMax =  -7.47013260138374E-08  9.50357767429962E+00
 cg2d: Sum(rhs),rhsMax =  -7.47062216532868E-08  9.50291163791579E+00
 cg2d: Sum(rhs),rhsMax =  -7.47126236433360E-08  9.50219980056318E+00
 cg2d: Sum(rhs),rhsMax =  -7.47184074612051E-08  9.50145094748729E+00
 cg2d: Sum(rhs),rhsMax =  -7.47247455024080E-08  9.50067438045622E+00
 cg2d: Sum(rhs),rhsMax =  -7.47313322335685E-08  9.49987965703835E+00
 cg2d: Sum(rhs),rhsMax =  -7.47377768561819E-08  9.49907634096511E+00
 cg2d: Sum(rhs),rhsMax =  -7.47441433190943E-08  9.49827377465974E+00
 cg2d: Sum(rhs),rhsMax =  -7.47505310982888E-08  9.49748086980356E+00
 cg2d: Sum(rhs),rhsMax =  -7.47569046666285E-08  9.49670591827534E+00
 cg2d: Sum(rhs),rhsMax =  -7.47627666441986E-08  9.49595642566026E+00
 cg2d: Sum(rhs),rhsMax =  -7.47686570434780E-08  9.49523896197083E+00
 cg2d: Sum(rhs),rhsMax =  -7.47742205930990E-08  9.49455904201468E+00
 cg2d: Sum(rhs),rhsMax =  -7.47793578170786E-08  9.49392104808525E+00
 cg2d: Sum(rhs),rhsMax =  -7.47843102999468E-08  9.49332815058320E+00
 cg2d: Sum(rhs),rhsMax =  -7.47889217223019E-08  9.49278226320107E+00
 cg2d: Sum(rhs),rhsMax =  -7.47930855027334E-08  9.49228403703651E+00
 cg2d: Sum(rhs),rhsMax =  -7.47963611047453E-08  9.49183288684206E+00
 cg2d: Sum(rhs),rhsMax =  -7.48000417161165E-08  9.49142705076112E+00
 cg2d: Sum(rhs),rhsMax =  -7.48029052033417E-08  9.49106366991647E+00
 cg2d: Sum(rhs),rhsMax =  -7.48058113231309E-08  9.49073888097194E+00
 cg2d: Sum(rhs),rhsMax =  -7.48079642676203E-08  9.49044792286002E+00
 cg2d: Sum(rhs),rhsMax =  -7.48104369563407E-08  9.49018527463466E+00
 EXTERNAL_FIELDS_LOAD, it=   3600330 : Reading new data, i0,i1=    6    7 (prev=    5    9 )
 DIC_FIELDS_LOAD, it=   3600330 : Reading new data, i0,i1=    6    7 (prev=    5    6 )
 cg2d: Sum(rhs),rhsMax =  -7.48125685845480E-08  9.48994481428126E+00
 cg2d: Sum(rhs),rhsMax =  -7.48145367879260E-08  9.48970977028949E+00
 cg2d: Sum(rhs),rhsMax =  -7.48167536812616E-08  9.48946667050908E+00
 cg2d: Sum(rhs),rhsMax =  -7.48186579357935E-08  9.48920195983684E+00
 cg2d: Sum(rhs),rhsMax =  -7.48212727330611E-08  9.48890231838115E+00
 cg2d: Sum(rhs),rhsMax =  -7.48240864822947E-08  9.48855490239494E+00
 cg2d: Sum(rhs),rhsMax =  -7.48277528828112E-08  9.48814760448955E+00
 cg2d: Sum(rhs),rhsMax =  -7.48317106058494E-08  9.48766929469714E+00
 cg2d: Sum(rhs),rhsMax =  -7.48361301816658E-08  9.48711003726197E+00
 cg2d: Sum(rhs),rhsMax =  -7.48412745110727E-08  9.48646127184076E+00
 cg2d: Sum(rhs),rhsMax =  -7.48473496514634E-08  9.48571598443359E+00
 cg2d: Sum(rhs),rhsMax =  -7.48540713857437E-08  9.48486884714226E+00
 cg2d: Sum(rhs),rhsMax =  -7.48618091961362E-08  9.48391631089758E+00
 cg2d: Sum(rhs),rhsMax =  -7.48703143926832E-08  9.48285664384895E+00
 cg2d: Sum(rhs),rhsMax =  -7.48790469629057E-08  9.48168991622247E+00
 cg2d: Sum(rhs),rhsMax =  -7.48895487845402E-08  9.48041794354397E+00
 cg2d: Sum(rhs),rhsMax =  -7.49003561395511E-08  9.47904418707887E+00
 cg2d: Sum(rhs),rhsMax =  -7.49121227272553E-08  9.47757361133926E+00
 cg2d: Sum(rhs),rhsMax =  -7.49249196019264E-08  9.47601250495736E+00
 cg2d: Sum(rhs),rhsMax =  -7.49377875308710E-08  9.47436827146146E+00
 cg2d: Sum(rhs),rhsMax =  -7.49514157405429E-08  9.47264919973884E+00
 cg2d: Sum(rhs),rhsMax =  -7.49656123844034E-08  9.47086422427234E+00
 cg2d: Sum(rhs),rhsMax =  -7.49802140376232E-08  9.46902267691356E+00
 cg2d: Sum(rhs),rhsMax =  -7.49953059653308E-08  9.46713403481286E+00
 cg2d: Sum(rhs),rhsMax =  -7.50105257907308E-08  9.46520767024855E+00
 cg2d: Sum(rhs),rhsMax =  -7.50263424720288E-08  9.46325259778073E+00
 cg2d: Sum(rhs),rhsMax =  -7.50422373130277E-08  9.46127726524814E+00
 cg2d: Sum(rhs),rhsMax =  -7.50577768826588E-08  9.45928937477588E+00
 cg2d: Sum(rhs),rhsMax =  -7.50738990973332E-08  9.45729571583441E+00
 cg2d: Sum(rhs),rhsMax =  -7.50896163026482E-08  9.45530206338839E+00
 cg2d: Sum(rhs),rhsMax =  -7.51056461467670E-08  9.45331309804778E+00
 cg2d: Sum(rhs),rhsMax =  -7.51212709815263E-08  9.45133234916556E+00
 cg2d: Sum(rhs),rhsMax =  -7.51373789853460E-08  9.44936217148271E+00
 cg2d: Sum(rhs),rhsMax =  -7.51527906572846E-08  9.44740375781686E+00
 cg2d: Sum(rhs),rhsMax =  -7.51685931277279E-08  9.44545718748645E+00
 cg2d: Sum(rhs),rhsMax =  -7.51841966462052E-08  9.44352151007986E+00
 cg2d: Sum(rhs),rhsMax =  -7.51994591041694E-08  9.44159486329961E+00
 cg2d: Sum(rhs),rhsMax =  -7.52147784055524E-08  9.43967460290015E+00
 cg2d: Sum(rhs),rhsMax =  -7.52305737705683E-08  9.43775744343237E+00
 cg2d: Sum(rhs),rhsMax =  -7.52457793851136E-08  9.43583960877673E+00
 cg2d: Sum(rhs),rhsMax =  -7.52614752741465E-08  9.43391698185443E+00
 cg2d: Sum(rhs),rhsMax =  -7.52768585243757E-08  9.43198524752366E+00
 cg2d: Sum(rhs),rhsMax =  -7.52925899405454E-08  9.43004003060471E+00
 cg2d: Sum(rhs),rhsMax =  -7.53084705706897E-08  9.42807701983885E+00
 cg2d: Sum(rhs),rhsMax =  -7.53246993667744E-08  9.42609207475689E+00
 cg2d: Sum(rhs),rhsMax =  -7.53408997411498E-08  9.42408132282525E+00
 cg2d: Sum(rhs),rhsMax =  -7.53572138023628E-08  9.42204124662806E+00
 cg2d: Sum(rhs),rhsMax =  -7.53741673520381E-08  9.41996876781019E+00
 cg2d: Sum(rhs),rhsMax =  -7.53910782691491E-08  9.41786131641806E+00
 cg2d: Sum(rhs),rhsMax =  -7.54086713072866E-08  9.41571688244791E+00
 cg2d: Sum(rhs),rhsMax =  -7.54266125113645E-08  9.41353407021840E+00
 cg2d: Sum(rhs),rhsMax =  -7.54444755557415E-08  9.41131216516102E+00
 cg2d: Sum(rhs),rhsMax =  -7.54630704591364E-08  9.40905115996980E+00
 cg2d: Sum(rhs),rhsMax =  -7.54816795733859E-08  9.40675174533744E+00
 cg2d: Sum(rhs),rhsMax =  -7.55005373775930E-08  9.40441527809810E+00
 cg2d: Sum(rhs),rhsMax =  -7.55200275648349E-08  9.40204373790542E+00
 cg2d: Sum(rhs),rhsMax =  -7.55398446017352E-08  9.39963967991296E+00
 cg2d: Sum(rhs),rhsMax =  -7.55594129486781E-08  9.39720618276624E+00
 cg2d: Sum(rhs),rhsMax =  -7.55797202600661E-08  9.39474678273504E+00
 cg2d: Sum(rhs),rhsMax =  -7.56002052071381E-08  9.39226540565015E+00
 EXTERNAL_FIELDS_LOAD, it=   3600390 : Reading new data, i0,i1=    7    8 (prev=    6    7 )
 DIC_FIELDS_LOAD, it=   3600390 : Reading new data, i0,i1=    7    8 (prev=    6    7 )
 cg2d: Sum(rhs),rhsMax =  -7.56204627805346E-08  9.38976628030644E+00
 cg2d: Sum(rhs),rhsMax =  -7.56415232672225E-08  9.38724775533259E+00
 cg2d: Sum(rhs),rhsMax =  -7.56618732111747E-08  9.38470942901966E+00
 cg2d: Sum(rhs),rhsMax =  -7.56830758064098E-08  9.38215030318780E+00
 cg2d: Sum(rhs),rhsMax =  -7.57043636667731E-08  9.37956883924381E+00
 cg2d: Sum(rhs),rhsMax =  -7.57257581085469E-08  9.37696305631202E+00
 cg2d: Sum(rhs),rhsMax =  -7.57472449208763E-08  9.37433065622099E+00
 cg2d: Sum(rhs),rhsMax =  -7.57689306851717E-08  9.37166915330181E+00
 cg2d: Sum(rhs),rhsMax =  -7.57913838356217E-08  9.36897600473142E+00
 cg2d: Sum(rhs),rhsMax =  -7.58139293566273E-08  9.36624871729081E+00
 cg2d: Sum(rhs),rhsMax =  -7.58368727815650E-08  9.36348495363947E+00
 cg2d: Sum(rhs),rhsMax =  -7.58596883088103E-08  9.36068261643794E+00
 cg2d: Sum(rhs),rhsMax =  -7.58831930625092E-08  9.35783991548456E+00
 cg2d: Sum(rhs),rhsMax =  -7.59071596689864E-08  9.35495541522523E+00
 cg2d: Sum(rhs),rhsMax =  -7.59316307608060E-08  9.35202806312956E+00
 cg2d: Sum(rhs),rhsMax =  -7.59561444851897E-08  9.34905718311665E+00
 cg2d: Sum(rhs),rhsMax =  -7.59807505801291E-08  9.34604244734688E+00
 cg2d: Sum(rhs),rhsMax =  -7.60062519589155E-08  9.34298385173757E+00
 cg2d: Sum(rhs),rhsMax =  -7.60316041237274E-08  9.33988171405705E+00
 cg2d: Sum(rhs),rhsMax =  -7.60576810421298E-08  9.33673667089172E+00
 cg2d: Sum(rhs),rhsMax =  -7.60842198133105E-08  9.33354966433849E+00
 cg2d: Sum(rhs),rhsMax =  -7.61109362201751E-08  9.33032189428481E+00
 cg2d: Sum(rhs),rhsMax =  -7.61379794766981E-08  9.32705473610878E+00
 cg2d: Sum(rhs),rhsMax =  -7.61650014169390E-08  9.32374964223594E+00
 cg2d: Sum(rhs),rhsMax =  -7.61924070502573E-08  9.32040805771324E+00
 cg2d: Sum(rhs),rhsMax =  -7.62202390092170E-08  9.31703133797851E+00
 cg2d: Sum(rhs),rhsMax =  -7.62486536132201E-08  9.31362068532222E+00
 cg2d: Sum(rhs),rhsMax =  -7.62769758466675E-08  9.31017709807696E+00
 cg2d: Sum(rhs),rhsMax =  -7.63053833452432E-08  9.30670132260387E+00
 cg2d: Sum(rhs),rhsMax =  -7.63343095400160E-08  9.30319380786966E+00
 cg2d: Sum(rhs),rhsMax =  -7.63631078370963E-08  9.29965466644313E+00
 cg2d: Sum(rhs),rhsMax =  -7.63924603575106E-08  9.29608366095666E+00
 cg2d: Sum(rhs),rhsMax =  -7.64222036764295E-08  9.29248016366683E+00
 cg2d: Sum(rhs),rhsMax =  -7.64520393659041E-08  9.28884314276847E+00
 cg2d: Sum(rhs),rhsMax =  -7.64822445376012E-08  9.28517117681256E+00
 cg2d: Sum(rhs),rhsMax =  -7.65125633961361E-08  9.28146248933914E+00
 cg2d: Sum(rhs),rhsMax =  -7.65432446314662E-08  9.27771499430064E+00
 cg2d: Sum(rhs),rhsMax =  -7.65746861475236E-08  9.27392634829171E+00
 cg2d: Sum(rhs),rhsMax =  -7.66061276635810E-08  9.27009401586145E+00
 cg2d: Sum(rhs),rhsMax =  -7.66378391858780E-08  9.26621534803516E+00
 cg2d: Sum(rhs),rhsMax =  -7.66705383625776E-08  9.26228766593419E+00
 cg2d: Sum(rhs),rhsMax =  -7.67030741144481E-08  9.25830830078040E+00
 cg2d: Sum(rhs),rhsMax =  -7.67362919873449E-08  9.25427464244149E+00
 cg2d: Sum(rhs),rhsMax =  -7.67699646075926E-08  9.25018420208542E+00
 cg2d: Sum(rhs),rhsMax =  -7.68039853937807E-08  9.24603467114681E+00
 cg2d: Sum(rhs),rhsMax =  -7.68388872529613E-08  9.24182397900772E+00
 cg2d: Sum(rhs),rhsMax =  -7.68742154377833E-08  9.23755034859452E+00
 cg2d: Sum(rhs),rhsMax =  -7.69100552133750E-08  9.23321234366443E+00
 cg2d: Sum(rhs),rhsMax =  -7.69468400108053E-08  9.22880889968266E+00
 cg2d: Sum(rhs),rhsMax =  -7.69835182268253E-08  9.22433933197490E+00
 cg2d: Sum(rhs),rhsMax =  -7.70209354072904E-08  9.21980332836426E+00
 cg2d: Sum(rhs),rhsMax =  -7.70591341847648E-08  9.21520093492414E+00
 cg2d: Sum(rhs),rhsMax =  -7.70982282460864E-08  9.21053254057723E+00
 cg2d: Sum(rhs),rhsMax =  -7.71375923136475E-08  9.20579886154174E+00
 cg2d: Sum(rhs),rhsMax =  -7.71773187580038E-08  9.20100092277316E+00
 cg2d: Sum(rhs),rhsMax =  -7.72178623265063E-08  9.19614003508373E+00
 cg2d: Sum(rhs),rhsMax =  -7.72588606423597E-08  9.19121776376076E+00
 cg2d: Sum(rhs),rhsMax =  -7.73005126575299E-08  9.18623589368687E+00
 cg2d: Sum(rhs),rhsMax =  -7.73430812728293E-08  9.18119640414723E+00
 cg2d: Sum(rhs),rhsMax =  -7.73854154090259E-08  9.17610144209478E+00
 EXTERNAL_FIELDS_LOAD, it=   3600450 : Reading new data, i0,i1=    8    9 (prev=    7    8 )
 DIC_FIELDS_LOAD, it=   3600450 : Reading new data, i0,i1=    8    9 (prev=    7    8 )
 cg2d: Sum(rhs),rhsMax =  -7.74284956150950E-08  9.17095326904567E+00
 cg2d: Sum(rhs),rhsMax =  -7.74719595142415E-08  9.16576412699309E+00
 cg2d: Sum(rhs),rhsMax =  -7.75162902755255E-08  9.16054233368469E+00
 cg2d: Sum(rhs),rhsMax =  -7.75600952351851E-08  9.15529583959941E+00
 cg2d: Sum(rhs),rhsMax =  -7.76045467887343E-08  9.15003201693785E+00
 cg2d: Sum(rhs),rhsMax =  -7.76489557097193E-08  9.14475750599293E+00
 cg2d: Sum(rhs),rhsMax =  -7.76937127966448E-08  9.13947810620331E+00
 cg2d: Sum(rhs),rhsMax =  -7.77385196215619E-08  9.13419871539155E+00
 cg2d: Sum(rhs),rhsMax =  -7.77830635456667E-08  9.12892331307296E+00
 cg2d: Sum(rhs),rhsMax =  -7.78277424728913E-08  9.12365496001899E+00
 cg2d: Sum(rhs),rhsMax =  -7.78721371830216E-08  9.11839580250666E+00
 cg2d: Sum(rhs),rhsMax =  -7.79170150622122E-08  9.11314707861780E+00
 cg2d: Sum(rhs),rhsMax =  -7.79618360979839E-08  9.10790912686148E+00
 cg2d: Sum(rhs),rhsMax =  -7.80063302840972E-08  9.10268140327570E+00
 cg2d: Sum(rhs),rhsMax =  -7.80512792175614E-08  9.09746251290633E+00
 cg2d: Sum(rhs),rhsMax =  -7.80961926238888E-08  9.09225025831423E+00
 cg2d: Sum(rhs),rhsMax =  -7.81409141836775E-08  9.08704170372423E+00
 cg2d: Sum(rhs),rhsMax =  -7.81859057497059E-08  9.08183325412304E+00
 cg2d: Sum(rhs),rhsMax =  -7.82307836288965E-08  9.07662074967284E+00
 cg2d: Sum(rhs),rhsMax =  -7.82759315143267E-08  9.07139957792224E+00
 cg2d: Sum(rhs),rhsMax =  -7.83211078214663E-08  9.06616480379289E+00
 cg2d: Sum(rhs),rhsMax =  -7.83665612402729E-08  9.06091131197731E+00
 cg2d: Sum(rhs),rhsMax =  -7.84124978281397E-08  9.05563395765243E+00
 cg2d: Sum(rhs),rhsMax =  -7.84584273105793E-08  9.05032772066772E+00
 cg2d: Sum(rhs),rhsMax =  -7.85049394380621E-08  9.04498784959721E+00
 cg2d: Sum(rhs),rhsMax =  -7.85514657763997E-08  9.03960999802522E+00
 cg2d: Sum(rhs),rhsMax =  -7.85986244977721E-08  9.03419034933061E+00
 cg2d: Sum(rhs),rhsMax =  -7.86464653401708E-08  9.02872572370695E+00
 cg2d: Sum(rhs),rhsMax =  -7.86944696073988E-08  9.02321366240276E+00
 cg2d: Sum(rhs),rhsMax =  -7.87431417847984E-08  9.01765248043218E+00
 cg2d: Sum(rhs),rhsMax =  -1.33998084095310E-06  9.01204099544372E+00
 cg2d: Sum(rhs),rhsMax =  -1.34082337410746E-06  9.00637963924738E+00
 cg2d: Sum(rhs),rhsMax =  -1.34167402165986E-06  9.00066871161671E+00
 cg2d: Sum(rhs),rhsMax =  -1.34253337336077E-06  8.99490946733707E+00
 cg2d: Sum(rhs),rhsMax =  -1.34340049129378E-06  8.98910373835869E+00
 cg2d: Sum(rhs),rhsMax =  -1.34427560283257E-06  8.98325383485267E+00
 cg2d: Sum(rhs),rhsMax =  -1.34515761374132E-06  8.97736244432031E+00
 cg2d: Sum(rhs),rhsMax =  -1.34604695745111E-06  8.97143253134114E+00
 cg2d: Sum(rhs),rhsMax =  -1.34694269604552E-06  8.96546724075341E+00
 cg2d: Sum(rhs),rhsMax =  -1.34784433214463E-06  8.95946980918095E+00
 cg2d: Sum(rhs),rhsMax =  -1.33998084095310E-06  9.01204099544372E+00
 cg2d: Sum(rhs),rhsMax =  -1.34082337410746E-06  9.00637963924738E+00
 cg2d: Sum(rhs),rhsMax =  -1.34167402165986E-06  9.00066871161671E+00
 cg2d: Sum(rhs),rhsMax =  -1.34253337336077E-06  8.99490946733707E+00
 cg2d: Sum(rhs),rhsMax =  -1.34340049129378E-06  8.98910373835869E+00
 cg2d: Sum(rhs),rhsMax =  -1.34427560283257E-06  8.98325383485267E+00
 cg2d: Sum(rhs),rhsMax =  -1.34515761374132E-06  8.97736244432031E+00
 cg2d: Sum(rhs),rhsMax =  -1.34604695745111E-06  8.97143253134114E+00
 cg2d: Sum(rhs),rhsMax =  -1.34694269604552E-06  8.96546724075341E+00
 cg2d: Sum(rhs),rhsMax =  -7.08041838493045E-07  8.95947015013560E+00
 cg2d: Sum(rhs),rhsMax =   6.12954131895549E-12  2.43653691415285E-02
 cg2d: Sum(rhs),rhsMax =  -1.33998084095310E-06  9.01204099544372E+00
 cg2d: Sum(rhs),rhsMax =  -1.34082337410746E-06  9.00637963924738E+00
 cg2d: Sum(rhs),rhsMax =  -1.34167402165986E-06  9.00066871161671E+00
 cg2d: Sum(rhs),rhsMax =  -1.34253337336077E-06  8.99490946733707E+00
 cg2d: Sum(rhs),rhsMax =  -1.34340049129378E-06  8.98910373835869E+00
 cg2d: Sum(rhs),rhsMax =  -1.34427560283257E-06  8.98325383485267E+00
 cg2d: Sum(rhs),rhsMax =  -1.34515761374132E-06  8.97736244432031E+00
 cg2d: Sum(rhs),rhsMax =  -1.34604695745111E-06  8.97143253134114E+00
 cg2d: Sum(rhs),rhsMax =  -7.90111180037911E-07  8.96546728336620E+00
 cg2d: Sum(rhs),rhsMax =   6.38344932468726E-12  2.39049665188715E-02
 cg2d: Sum(rhs),rhsMax =  -1.33998084095310E-06  9.01204099544372E+00
 cg2d: Sum(rhs),rhsMax =  -1.34082337410746E-06  9.00637963924738E+00
 cg2d: Sum(rhs),rhsMax =  -1.34167402165986E-06  9.00066871161671E+00
 cg2d: Sum(rhs),rhsMax =  -1.34253337336077E-06  8.99490946733707E+00
 cg2d: Sum(rhs),rhsMax =  -1.34340049129378E-06  8.98910373835869E+00
 cg2d: Sum(rhs),rhsMax =  -1.34427560283257E-06  8.98325383485267E+00
 cg2d: Sum(rhs),rhsMax =  -1.34515761374132E-06  8.97736244432031E+00
 cg2d: Sum(rhs),rhsMax =  -1.60776905744342E-06  8.97143233610434E+00
 cg2d: Sum(rhs),rhsMax =   6.28441743089070E-12  2.47713913922589E-02
 cg2d: Sum(rhs),rhsMax =  -1.33998084095310E-06  9.01204099544372E+00
 cg2d: Sum(rhs),rhsMax =  -1.34082337410746E-06  9.00637963924738E+00
 cg2d: Sum(rhs),rhsMax =  -1.34167402165986E-06  9.00066871161671E+00
 cg2d: Sum(rhs),rhsMax =  -1.34253337336077E-06  8.99490946733707E+00
 cg2d: Sum(rhs),rhsMax =  -1.34340049129378E-06  8.98910373835869E+00
 cg2d: Sum(rhs),rhsMax =  -1.34427560283257E-06  8.98325383485267E+00
 cg2d: Sum(rhs),rhsMax =  -2.06294552640429E-06  8.97736207763177E+00
 cg2d: Sum(rhs),rhsMax =   6.18377571370843E-12  2.53712183974048E-02
 cg2d: Sum(rhs),rhsMax =  -1.33998084095310E-06  9.01204099544372E+00
 cg2d: Sum(rhs),rhsMax =  -1.34082337410746E-06  9.00637963924738E+00
 cg2d: Sum(rhs),rhsMax =  -1.34167402165986E-06  9.00066871161671E+00
 cg2d: Sum(rhs),rhsMax =  -1.34253337336077E-06  8.99490946733707E+00
 cg2d: Sum(rhs),rhsMax =  -1.34340049129378E-06  8.98910373835869E+00
 cg2d: Sum(rhs),rhsMax =  -1.90060575278039E-06  8.98325395945565E+00
 cg2d: Sum(rhs),rhsMax =   6.34875485516773E-12  2.50373526633453E-02
 cg2d: Sum(rhs),rhsMax =  -1.33998084095310E-06  9.01204099544372E+00
 cg2d: Sum(rhs),rhsMax =  -1.34082337410746E-06  9.00637963924738E+00
 cg2d: Sum(rhs),rhsMax =  -1.34167402165986E-06  9.00066871161671E+00
 cg2d: Sum(rhs),rhsMax =  -1.34253337336077E-06  8.99490946733707E+00
 cg2d: Sum(rhs),rhsMax =  -2.53555222684554E-06  8.98910380610869E+00
 cg2d: Sum(rhs),rhsMax =   6.41114938915166E-12  2.51247206479026E-02
 cg2d: Sum(rhs),rhsMax =  -1.33998084095310E-06  9.01204099544372E+00
 cg2d: Sum(rhs),rhsMax =  -1.34082337410746E-06  9.00637963924738E+00
 cg2d: Sum(rhs),rhsMax =  -1.34167402165986E-06  9.00066871161671E+00
 cg2d: Sum(rhs),rhsMax =  -1.73942151349138E-06  8.99490961801416E+00
 cg2d: Sum(rhs),rhsMax =   6.39321928730396E-12  2.55295164967526E-02
 cg2d: Sum(rhs),rhsMax =  -1.33998084095310E-06  9.01204099544372E+00
 cg2d: Sum(rhs),rhsMax =  -1.34082337410746E-06  9.00637963924738E+00
 cg2d: Sum(rhs),rhsMax =  -1.99146834489738E-06  9.00066857493241E+00
 cg2d: Sum(rhs),rhsMax =   6.35830277317950E-12  2.58720626182150E-02
 cg2d: Sum(rhs),rhsMax =  -1.33998084095310E-06  9.01204099544372E+00
 cg2d: Sum(rhs),rhsMax =  -1.95608535591418E-06  9.00637925932321E+00
(PID.TID 0000.0001) // =======================================================
(PID.TID 0000.0001) // Begin AD_MONITOR dynamic field statistics
(PID.TID 0000.0001) // =======================================================
(PID.TID 0000.0001) %MON ad_time_tsnumber             =               3600482
(PID.TID 0000.0001) %MON ad_time_secondsf             =   1.5554082240000E+11
(PID.TID 0000.0001) %MON ad_dynstat_adeta_max         =   4.5859894891362E+02
(PID.TID 0000.0001) %MON ad_dynstat_adeta_min         =  -3.1521496086629E+03
(PID.TID 0000.0001) %MON ad_dynstat_adeta_mean        =  -2.6214023518367E+01
(PID.TID 0000.0001) %MON ad_dynstat_adeta_sd          =   6.1970955120259E+02
(PID.TID 0000.0001) %MON ad_dynstat_adeta_del2        =   5.2414415825075E+00
(PID.TID 0000.0001) %MON ad_dynstat_aduvel_max        =   1.9729742724103E+04
(PID.TID 0000.0001) %MON ad_dynstat_aduvel_min        =  -1.0029085458213E+04
(PID.TID 0000.0001) %MON ad_dynstat_aduvel_mean       =   5.3877015879992E+01
(PID.TID 0000.0001) %MON ad_dynstat_aduvel_sd         =   6.2181662853363E+02
(PID.TID 0000.0001) %MON ad_dynstat_aduvel_del2       =   2.1305728339519E+00
(PID.TID 0000.0001) %MON ad_dynstat_advvel_max        =   8.5530878739195E+03
(PID.TID 0000.0001) %MON ad_dynstat_advvel_min        =  -7.7435665235654E+03
(PID.TID 0000.0001) %MON ad_dynstat_advvel_mean       =   1.8670879089296E-01
(PID.TID 0000.0001) %MON ad_dynstat_advvel_sd         =   5.7453173147865E+02
(PID.TID 0000.0001) %MON ad_dynstat_advvel_del2       =   2.2500992972490E+00
(PID.TID 0000.0001) %MON ad_dynstat_adwvel_max        =   5.2063882712357E+03
(PID.TID 0000.0001) %MON ad_dynstat_adwvel_min        =  -4.1620733317750E+04
(PID.TID 0000.0001) %MON ad_dynstat_adwvel_mean       =  -6.3883569337430E-01
(PID.TID 0000.0001) %MON ad_dynstat_adwvel_sd         =   1.1511837803578E+02
(PID.TID 0000.0001) %MON ad_dynstat_adwvel_del2       =   3.2915928243593E+00
(PID.TID 0000.0001) %MON ad_dynstat_adtheta_max       =   1.7557092742158E+03
(PID.TID 0000.0001) %MON ad_dynstat_adtheta_min       =  -1.3100093462848E+03
(PID.TID 0000.0001) %MON ad_dynstat_adtheta_mean      =   7.1712872396788E-01
(PID.TID 0000.0001) %MON ad_dynstat_adtheta_sd        =   1.1870547131946E+02
(PID.TID 0000.0001) %MON ad_dynstat_adtheta_del2      =   4.0254290507665E-01
(PID.TID 0000.0001) %MON ad_dynstat_adsalt_max        =   6.7147555290048E+03
(PID.TID 0000.0001) %MON ad_dynstat_adsalt_min        =  -8.4754303831872E+03
(PID.TID 0000.0001) %MON ad_dynstat_adsalt_mean       =  -3.7592297964681E+00
(PID.TID 0000.0001) %MON ad_dynstat_adsalt_sd         =   6.3424599259189E+02
(PID.TID 0000.0001) %MON ad_dynstat_adsalt_del2       =   2.0648168169616E+00
(PID.TID 0000.0001) %MON ad_dynstat_adsst_max         =   8.6695695923064E+00
(PID.TID 0000.0001) %MON ad_dynstat_adsst_min         =  -1.0499685189909E+01
(PID.TID 0000.0001) %MON ad_dynstat_adsst_mean        =   4.0102432972581E-02
(PID.TID 0000.0001) %MON ad_dynstat_adsst_sd          =   1.4646772645486E+00
(PID.TID 0000.0001) %MON ad_dynstat_adsst_del2        =   1.7438192086143E-02
(PID.TID 0000.0001) %MON ad_dynstat_adsss_max         =   2.7771875912741E+01
(PID.TID 0000.0001) %MON ad_dynstat_adsss_min         =  -3.4744989685641E+01
(PID.TID 0000.0001) %MON ad_dynstat_adsss_mean        =   2.8400362159387E-02
(PID.TID 0000.0001) %MON ad_dynstat_adsss_sd          =   4.2304136867974E+00
(PID.TID 0000.0001) %MON ad_dynstat_adsss_del2        =   5.3141011686140E-02
(PID.TID 0000.0001) %MON ad_forcing_adqnet_max        =   0.0000000000000E+00
(PID.TID 0000.0001) %MON ad_forcing_adqnet_min        =   0.0000000000000E+00
(PID.TID 0000.0001) %MON ad_forcing_adqnet_mean       =   0.0000000000000E+00
(PID.TID 0000.0001) %MON ad_forcing_adqnet_sd         =   0.0000000000000E+00
(PID.TID 0000.0001) %MON ad_forcing_adqnet_del2       =   0.0000000000000E+00
(PID.TID 0000.0001) %MON ad_forcing_adqsw_max         =   5.2499375017026E-02
(PID.TID 0000.0001) %MON ad_forcing_adqsw_min         =  -1.3022674736966E-01
(PID.TID 0000.0001) %MON ad_forcing_adqsw_mean        =  -2.1116303307910E-04
(PID.TID 0000.0001) %MON ad_forcing_adqsw_sd          =   8.8332221392877E-03
(PID.TID 0000.0001) %MON ad_forcing_adqsw_del2        =   1.3726602516084E-04
(PID.TID 0000.0001) %MON ad_forcing_adempmr_max       =   0.0000000000000E+00
(PID.TID 0000.0001) %MON ad_forcing_adempmr_min       =   0.0000000000000E+00
(PID.TID 0000.0001) %MON ad_forcing_adempmr_mean      =   0.0000000000000E+00
(PID.TID 0000.0001) %MON ad_forcing_adempmr_sd        =   0.0000000000000E+00
(PID.TID 0000.0001) %MON ad_forcing_adempmr_del2      =   0.0000000000000E+00
(PID.TID 0000.0001) %MON ad_forcing_adfu_max          =   0.0000000000000E+00
(PID.TID 0000.0001) %MON ad_forcing_adfu_min          =   0.0000000000000E+00
(PID.TID 0000.0001) %MON ad_forcing_adfu_mean         =   0.0000000000000E+00
(PID.TID 0000.0001) %MON ad_forcing_adfu_sd           =   0.0000000000000E+00
(PID.TID 0000.0001) %MON ad_forcing_adfu_del2         =   0.0000000000000E+00
(PID.TID 0000.0001) %MON ad_forcing_adfv_max          =   0.0000000000000E+00
(PID.TID 0000.0001) %MON ad_forcing_adfv_min          =   0.0000000000000E+00
(PID.TID 0000.0001) %MON ad_forcing_adfv_mean         =   0.0000000000000E+00
(PID.TID 0000.0001) %MON ad_forcing_adfv_sd           =   0.0000000000000E+00
(PID.TID 0000.0001) %MON ad_forcing_adfv_del2         =   0.0000000000000E+00
(PID.TID 0000.0001) // =======================================================
(PID.TID 0000.0001) // End AD_MONITOR dynamic field statistics
(PID.TID 0000.0001) // =======================================================
(PID.TID 0000.0001) // =======================================================
(PID.TID 0000.0001) // Begin AD_MONITOR ptracer field statistics
(PID.TID 0000.0001) // =======================================================
(PID.TID 0000.0001) %MON ad_trcstat_adptracer01_max   =   0.0000000000000E+00
(PID.TID 0000.0001) %MON ad_trcstat_adptracer01_min   =   0.0000000000000E+00
(PID.TID 0000.0001) %MON ad_trcstat_adptracer01_mean  =   0.0000000000000E+00
(PID.TID 0000.0001) %MON ad_trcstat_adptracer01_sd    =   0.0000000000000E+00
(PID.TID 0000.0001) %MON ad_trcstat_adptracer01_del2  =   0.0000000000000E+00
(PID.TID 0000.0001) %MON ad_trcstat_adptracer02_max   =   0.0000000000000E+00
(PID.TID 0000.0001) %MON ad_trcstat_adptracer02_min   =   0.0000000000000E+00
(PID.TID 0000.0001) %MON ad_trcstat_adptracer02_mean  =   0.0000000000000E+00
(PID.TID 0000.0001) %MON ad_trcstat_adptracer02_sd    =   0.0000000000000E+00
(PID.TID 0000.0001) %MON ad_trcstat_adptracer02_del2  =   0.0000000000000E+00
(PID.TID 0000.0001) %MON ad_trcstat_adptracer03_max   =   6.3327301203476E-21
(PID.TID 0000.0001) %MON ad_trcstat_adptracer03_min   =  -7.6179624383655E-23
(PID.TID 0000.0001) %MON ad_trcstat_adptracer03_mean  =   1.3454658276974E-26
(PID.TID 0000.0001) %MON ad_trcstat_adptracer03_sd    =   8.7183933219107E-24
(PID.TID 0000.0001) %MON ad_trcstat_adptracer03_del2  =   1.0461595954670E-25
(PID.TID 0000.0001) %MON ad_trcstat_adptracer04_max   =   4.3215958747351E+05
(PID.TID 0000.0001) %MON ad_trcstat_adptracer04_min   =  -7.3623506389795E+06
(PID.TID 0000.0001) %MON ad_trcstat_adptracer04_mean  =  -6.8904507146644E+04
(PID.TID 0000.0001) %MON ad_trcstat_adptracer04_sd    =   6.1209594557695E+05
(PID.TID 0000.0001) %MON ad_trcstat_adptracer04_del2  =   1.3281668944470E+03
(PID.TID 0000.0001) %MON ad_trcstat_adptracer05_max   =   5.0786288241400E+05
(PID.TID 0000.0001) %MON ad_trcstat_adptracer05_min   =  -2.4151505360668E+04
(PID.TID 0000.0001) %MON ad_trcstat_adptracer05_mean  =   4.8380994211787E+03
(PID.TID 0000.0001) %MON ad_trcstat_adptracer05_sd    =   4.2923463527117E+04
(PID.TID 0000.0001) %MON ad_trcstat_adptracer05_del2  =   9.3430682732199E+01
(PID.TID 0000.0001) %MON ad_trcstat_adptracer06_max   =   3.6042248047801E+09
(PID.TID 0000.0001) %MON ad_trcstat_adptracer06_min   =  -3.3777217181176E+09
(PID.TID 0000.0001) %MON ad_trcstat_adptracer06_mean  =   1.8457316697068E+06
(PID.TID 0000.0001) %MON ad_trcstat_adptracer06_sd    =   1.3670748467134E+08
(PID.TID 0000.0001) %MON ad_trcstat_adptracer06_del2  =   6.1901694125038E+05
(PID.TID 0000.0001) %MON ad_trcstat_adptracer07_max   =   0.0000000000000E+00
(PID.TID 0000.0001) %MON ad_trcstat_adptracer07_min   =   0.0000000000000E+00
(PID.TID 0000.0001) %MON ad_trcstat_adptracer07_mean  =   0.0000000000000E+00
(PID.TID 0000.0001) %MON ad_trcstat_adptracer07_sd    =   0.0000000000000E+00
(PID.TID 0000.0001) %MON ad_trcstat_adptracer07_del2  =   0.0000000000000E+00
(PID.TID 0000.0001) %MON ad_trcstat_adptracer08_max   =   0.0000000000000E+00
(PID.TID 0000.0001) %MON ad_trcstat_adptracer08_min   =   0.0000000000000E+00
(PID.TID 0000.0001) %MON ad_trcstat_adptracer08_mean  =   0.0000000000000E+00
(PID.TID 0000.0001) %MON ad_trcstat_adptracer08_sd    =   0.0000000000000E+00
(PID.TID 0000.0001) %MON ad_trcstat_adptracer08_del2  =   0.0000000000000E+00
(PID.TID 0000.0001) %MON ad_trcstat_adptracer09_max   =   0.0000000000000E+00
(PID.TID 0000.0001) %MON ad_trcstat_adptracer09_min   =   0.0000000000000E+00
(PID.TID 0000.0001) %MON ad_trcstat_adptracer09_mean  =   0.0000000000000E+00
(PID.TID 0000.0001) %MON ad_trcstat_adptracer09_sd    =   0.0000000000000E+00
(PID.TID 0000.0001) %MON ad_trcstat_adptracer09_del2  =   0.0000000000000E+00
(PID.TID 0000.0001) // =======================================================
(PID.TID 0000.0001) // End AD_MONITOR ptracer field statistics
(PID.TID 0000.0001) // =======================================================
 cg2d: Sum(rhs),rhsMax =   6.37473407394396E-12  2.61311985388082E-02
 cg2d: Sum(rhs),rhsMax =  -1.33998130991131E-06  9.01204099605436E+00
 cg2d: Sum(rhs),rhsMax =   6.39582831141183E-12  2.63589903311535E-02
 cg2d: Sum(rhs),rhsMax =  -7.46576347410155E-08  9.50907671569018E+00
 cg2d: Sum(rhs),rhsMax =  -7.46636956705515E-08  9.50827538007810E+00
 cg2d: Sum(rhs),rhsMax =  -7.46696002806857E-08  9.50759038673436E+00
 cg2d: Sum(rhs),rhsMax =  -7.46738635371003E-08  9.50702164848735E+00
 cg2d: Sum(rhs),rhsMax =  -7.46774944104800E-08  9.50656668487862E+00
 cg2d: Sum(rhs),rhsMax =  -7.46800878914655E-08  9.50622069715104E+00
 cg2d: Sum(rhs),rhsMax =  -7.46821626762539E-08  9.50597670066013E+00
 cg2d: Sum(rhs),rhsMax =  -7.46832924392038E-08  9.50582571630982E+00
 cg2d: Sum(rhs),rhsMax =  -7.46840456145037E-08  9.50575700943737E+00
 cg2d: Sum(rhs),rhsMax =  -7.46835624454434E-08  9.50575837107225E+00
 cg2d: Sum(rhs),rhsMax =  -7.46833208609132E-08  9.50581645922263E+00
 cg2d: Sum(rhs),rhsMax =  -7.46821982033907E-08  9.50591711991761E+00
 cg2d: Sum(rhs),rhsMax =  -7.46813526575352E-08  9.50604571310823E+00
 cg2d: Sum(rhs),rhsMax =  -7.46798960449269E-08  9.50618745972881E+00
 cg2d: Sum(rhs),rhsMax =  -7.46791073424902E-08  9.50632780119137E+00
 cg2d: Sum(rhs),rhsMax =  -7.46779846849677E-08  9.50645275158785E+00
 cg2d: Sum(rhs),rhsMax =  -7.46776720461639E-08  9.50654922994562E+00
 cg2d: Sum(rhs),rhsMax =  -7.46771249282574E-08  9.50660536798306E+00
 cg2d: Sum(rhs),rhsMax =  -7.46771320336848E-08  9.50661078108177E+00
 cg2d: Sum(rhs),rhsMax =  -7.46778141547111E-08  9.50655679154863E+00
 cg2d: Sum(rhs),rhsMax =  -7.46784394323186E-08  9.50643658250018E+00
 cg2d: Sum(rhs),rhsMax =  -7.46802726325768E-08  9.50624530490270E+00
 cg2d: Sum(rhs),rhsMax =  -7.46821271491172E-08  9.50598009866199E+00
 cg2d: Sum(rhs),rhsMax =  -7.46850545851885E-08  9.50564005870858E+00
 cg2d: Sum(rhs),rhsMax =  -7.46883372926277E-08  9.50522619443621E+00
 cg2d: Sum(rhs),rhsMax =  -7.46918829008791E-08  9.50474133855045E+00
 cg2d: Sum(rhs),rhsMax =  -7.46962030007126E-08  9.50418990415982E+00
 cg2d: Sum(rhs),rhsMax =  -7.47013260138374E-08  9.50357767429962E+00
 cg2d: Sum(rhs),rhsMax =  -7.47062216532868E-08  9.50291163791579E+00
 cg2d: Sum(rhs),rhsMax =  -7.47126236433360E-08  9.50219980056318E+00
 cg2d: Sum(rhs),rhsMax =  -7.47184074612051E-08  9.50145094748729E+00
 cg2d: Sum(rhs),rhsMax =  -7.47247455024080E-08  9.50067438045622E+00
 cg2d: Sum(rhs),rhsMax =  -7.47313322335685E-08  9.49987965703835E+00
 cg2d: Sum(rhs),rhsMax =  -7.47377768561819E-08  9.49907634096511E+00
 cg2d: Sum(rhs),rhsMax =  -7.47441433190943E-08  9.49827377465974E+00
 cg2d: Sum(rhs),rhsMax =  -7.47505310982888E-08  9.49748086980356E+00
 cg2d: Sum(rhs),rhsMax =  -7.47569046666285E-08  9.49670591827534E+00
 cg2d: Sum(rhs),rhsMax =  -7.47627666441986E-08  9.49595642566026E+00
 cg2d: Sum(rhs),rhsMax =  -7.47686570434780E-08  9.49523896197083E+00
 cg2d: Sum(rhs),rhsMax =  -7.47742205930990E-08  9.49455904201468E+00
 cg2d: Sum(rhs),rhsMax =  -7.47793578170786E-08  9.49392104808525E+00
 cg2d: Sum(rhs),rhsMax =  -7.47843102999468E-08  9.49332815058320E+00
 cg2d: Sum(rhs),rhsMax =  -7.47889217223019E-08  9.49278226320107E+00
 cg2d: Sum(rhs),rhsMax =  -7.47930855027334E-08  9.49228403703651E+00
 cg2d: Sum(rhs),rhsMax =  -7.47963611047453E-08  9.49183288684206E+00
 cg2d: Sum(rhs),rhsMax =  -7.48000417161165E-08  9.49142705076112E+00
 cg2d: Sum(rhs),rhsMax =  -7.48029052033417E-08  9.49106366991647E+00
 cg2d: Sum(rhs),rhsMax =  -7.48058113231309E-08  9.49073888097194E+00
 cg2d: Sum(rhs),rhsMax =  -7.48079642676203E-08  9.49044792286002E+00
 cg2d: Sum(rhs),rhsMax =  -7.48104369563407E-08  9.49018527463466E+00
 EXTERNAL_FIELDS_LOAD, it=   3600330 : Reading new data, i0,i1=    6    7 (prev=    5    9 )
 DIC_FIELDS_LOAD, it=   3600330 : Reading new data, i0,i1=    6    7 (prev=    5    6 )
 cg2d: Sum(rhs),rhsMax =  -7.48125685845480E-08  9.48994481428126E+00
 cg2d: Sum(rhs),rhsMax =  -7.48145367879260E-08  9.48970977028949E+00
 cg2d: Sum(rhs),rhsMax =  -7.48167536812616E-08  9.48946667050908E+00
 cg2d: Sum(rhs),rhsMax =  -7.48186579357935E-08  9.48920195983684E+00
 cg2d: Sum(rhs),rhsMax =  -7.48212727330611E-08  9.48890231838115E+00
 cg2d: Sum(rhs),rhsMax =  -7.48240864822947E-08  9.48855490239494E+00
 cg2d: Sum(rhs),rhsMax =  -7.48277528828112E-08  9.48814760448955E+00
 cg2d: Sum(rhs),rhsMax =  -7.48317106058494E-08  9.48766929469714E+00
 cg2d: Sum(rhs),rhsMax =  -7.48361301816658E-08  9.48711003726197E+00
 cg2d: Sum(rhs),rhsMax =  -7.48412745110727E-08  9.48646127184076E+00
 cg2d: Sum(rhs),rhsMax =  -7.48473496514634E-08  9.48571598443359E+00
 cg2d: Sum(rhs),rhsMax =  -7.48540713857437E-08  9.48486884714226E+00
 cg2d: Sum(rhs),rhsMax =  -7.48618091961362E-08  9.48391631089758E+00
 cg2d: Sum(rhs),rhsMax =  -7.48703143926832E-08  9.48285664384895E+00
 cg2d: Sum(rhs),rhsMax =  -7.48790469629057E-08  9.48168991622247E+00
 cg2d: Sum(rhs),rhsMax =  -7.48895487845402E-08  9.48041794354397E+00
 cg2d: Sum(rhs),rhsMax =  -7.49003561395511E-08  9.47904418707887E+00
 cg2d: Sum(rhs),rhsMax =  -7.49121227272553E-08  9.47757361133926E+00
 cg2d: Sum(rhs),rhsMax =  -7.49249196019264E-08  9.47601250495736E+00
 cg2d: Sum(rhs),rhsMax =  -7.49377875308710E-08  9.47436827146146E+00
 cg2d: Sum(rhs),rhsMax =  -7.49514157405429E-08  9.47264919973884E+00
 cg2d: Sum(rhs),rhsMax =  -7.49656123844034E-08  9.47086422427234E+00
 cg2d: Sum(rhs),rhsMax =  -7.49802140376232E-08  9.46902267691356E+00
 cg2d: Sum(rhs),rhsMax =  -7.49953059653308E-08  9.46713403481286E+00
 cg2d: Sum(rhs),rhsMax =  -7.50105257907308E-08  9.46520767024855E+00
 cg2d: Sum(rhs),rhsMax =  -7.50263424720288E-08  9.46325259778073E+00
 cg2d: Sum(rhs),rhsMax =  -7.50422373130277E-08  9.46127726524814E+00
 cg2d: Sum(rhs),rhsMax =  -7.50577768826588E-08  9.45928937477588E+00
 cg2d: Sum(rhs),rhsMax =  -7.50738990973332E-08  9.45729571583441E+00
 cg2d: Sum(rhs),rhsMax =  -7.50896163026482E-08  9.45530206338839E+00
 cg2d: Sum(rhs),rhsMax =  -7.51056461467670E-08  9.45331309804778E+00
 cg2d: Sum(rhs),rhsMax =  -7.51212709815263E-08  9.45133234916556E+00
 cg2d: Sum(rhs),rhsMax =  -7.51373789853460E-08  9.44936217148271E+00
 cg2d: Sum(rhs),rhsMax =  -7.51527906572846E-08  9.44740375781686E+00
 cg2d: Sum(rhs),rhsMax =  -7.51685931277279E-08  9.44545718748645E+00
 cg2d: Sum(rhs),rhsMax =  -7.51841966462052E-08  9.44352151007986E+00
 cg2d: Sum(rhs),rhsMax =  -7.51994591041694E-08  9.44159486329961E+00
 cg2d: Sum(rhs),rhsMax =  -7.52147784055524E-08  9.43967460290015E+00
 cg2d: Sum(rhs),rhsMax =  -7.52305737705683E-08  9.43775744343237E+00
 cg2d: Sum(rhs),rhsMax =  -7.52457793851136E-08  9.43583960877673E+00
 cg2d: Sum(rhs),rhsMax =  -7.52614752741465E-08  9.43391698185443E+00
 cg2d: Sum(rhs),rhsMax =  -7.52768585243757E-08  9.43198524752366E+00
 cg2d: Sum(rhs),rhsMax =  -7.52925899405454E-08  9.43004003060471E+00
 cg2d: Sum(rhs),rhsMax =  -7.53084705706897E-08  9.42807701983885E+00
 cg2d: Sum(rhs),rhsMax =  -7.53246993667744E-08  9.42609207475689E+00
 cg2d: Sum(rhs),rhsMax =  -7.53408997411498E-08  9.42408132282525E+00
 cg2d: Sum(rhs),rhsMax =  -7.53572138023628E-08  9.42204124662806E+00
 cg2d: Sum(rhs),rhsMax =  -7.53741673520381E-08  9.41996876781019E+00
 cg2d: Sum(rhs),rhsMax =  -7.53910782691491E-08  9.41786131641806E+00
 cg2d: Sum(rhs),rhsMax =  -7.54086713072866E-08  9.41571688244791E+00
 cg2d: Sum(rhs),rhsMax =  -7.54266125113645E-08  9.41353407021840E+00
 cg2d: Sum(rhs),rhsMax =  -7.54444755557415E-08  9.41131216516102E+00
 cg2d: Sum(rhs),rhsMax =  -7.54630704591364E-08  9.40905115996980E+00
 cg2d: Sum(rhs),rhsMax =  -7.54816795733859E-08  9.40675174533744E+00
 cg2d: Sum(rhs),rhsMax =  -7.55005373775930E-08  9.40441527809810E+00
 cg2d: Sum(rhs),rhsMax =  -7.55200275648349E-08  9.40204373790542E+00
 cg2d: Sum(rhs),rhsMax =  -7.55398446017352E-08  9.39963967991296E+00
 cg2d: Sum(rhs),rhsMax =  -7.55594129486781E-08  9.39720618276624E+00
 cg2d: Sum(rhs),rhsMax =  -7.55797202600661E-08  9.39474678273504E+00
 cg2d: Sum(rhs),rhsMax =  -7.56002052071381E-08  9.39226540565015E+00
 EXTERNAL_FIELDS_LOAD, it=   3600390 : Reading new data, i0,i1=    7    8 (prev=    6    7 )
 DIC_FIELDS_LOAD, it=   3600390 : Reading new data, i0,i1=    7    8 (prev=    6    7 )
 cg2d: Sum(rhs),rhsMax =  -7.56204627805346E-08  9.38976628030644E+00
 cg2d: Sum(rhs),rhsMax =  -7.56415232672225E-08  9.38724775533259E+00
 cg2d: Sum(rhs),rhsMax =  -7.56618732111747E-08  9.38470942901966E+00
 cg2d: Sum(rhs),rhsMax =  -7.56830758064098E-08  9.38215030318780E+00
 cg2d: Sum(rhs),rhsMax =  -7.57043636667731E-08  9.37956883924381E+00
 cg2d: Sum(rhs),rhsMax =  -7.57257581085469E-08  9.37696305631202E+00
 cg2d: Sum(rhs),rhsMax =  -7.57472449208763E-08  9.37433065622099E+00
 cg2d: Sum(rhs),rhsMax =  -7.57689306851717E-08  9.37166915330181E+00
 cg2d: Sum(rhs),rhsMax =  -7.57913838356217E-08  9.36897600473142E+00
 cg2d: Sum(rhs),rhsMax =  -7.58139293566273E-08  9.36624871729081E+00
 cg2d: Sum(rhs),rhsMax =  -7.58368727815650E-08  9.36348495363947E+00
 cg2d: Sum(rhs),rhsMax =  -7.58596883088103E-08  9.36068261643794E+00
 cg2d: Sum(rhs),rhsMax =  -7.58831930625092E-08  9.35783991548456E+00
 cg2d: Sum(rhs),rhsMax =  -7.59071596689864E-08  9.35495541522523E+00
 cg2d: Sum(rhs),rhsMax =  -7.59316307608060E-08  9.35202806312956E+00
 cg2d: Sum(rhs),rhsMax =  -7.59561444851897E-08  9.34905718311665E+00
 cg2d: Sum(rhs),rhsMax =  -7.59807505801291E-08  9.34604244734688E+00
 cg2d: Sum(rhs),rhsMax =  -7.60062519589155E-08  9.34298385173757E+00
 cg2d: Sum(rhs),rhsMax =  -7.60316041237274E-08  9.33988171405705E+00
 cg2d: Sum(rhs),rhsMax =  -7.60576810421298E-08  9.33673667089172E+00
 cg2d: Sum(rhs),rhsMax =  -7.60842198133105E-08  9.33354966433849E+00
 cg2d: Sum(rhs),rhsMax =  -7.61109362201751E-08  9.33032189428481E+00
 cg2d: Sum(rhs),rhsMax =  -7.61379794766981E-08  9.32705473610878E+00
 cg2d: Sum(rhs),rhsMax =  -7.61650014169390E-08  9.32374964223594E+00
 cg2d: Sum(rhs),rhsMax =  -7.61924070502573E-08  9.32040805771324E+00
 cg2d: Sum(rhs),rhsMax =  -7.62202390092170E-08  9.31703133797851E+00
 cg2d: Sum(rhs),rhsMax =  -7.62486536132201E-08  9.31362068532222E+00
 cg2d: Sum(rhs),rhsMax =  -7.62769758466675E-08  9.31017709807696E+00
 cg2d: Sum(rhs),rhsMax =  -7.63053833452432E-08  9.30670132260387E+00
 cg2d: Sum(rhs),rhsMax =  -7.63343095400160E-08  9.30319380786966E+00
 cg2d: Sum(rhs),rhsMax =  -7.63631078370963E-08  9.29965466644313E+00
 cg2d: Sum(rhs),rhsMax =  -7.63924603575106E-08  9.29608366095666E+00
 cg2d: Sum(rhs),rhsMax =  -7.64222036764295E-08  9.29248016366683E+00
 cg2d: Sum(rhs),rhsMax =  -7.64520393659041E-08  9.28884314276847E+00
 cg2d: Sum(rhs),rhsMax =  -7.64822445376012E-08  9.28517117681256E+00
 cg2d: Sum(rhs),rhsMax =  -7.65125633961361E-08  9.28146248933914E+00
 cg2d: Sum(rhs),rhsMax =  -7.65432446314662E-08  9.27771499430064E+00
 cg2d: Sum(rhs),rhsMax =  -7.65746861475236E-08  9.27392634829171E+00
 cg2d: Sum(rhs),rhsMax =  -7.66061276635810E-08  9.27009401586145E+00
 cg2d: Sum(rhs),rhsMax =  -7.66378391858780E-08  9.26621534803516E+00
 cg2d: Sum(rhs),rhsMax =  -7.66705383625776E-08  9.26228766593419E+00
 cg2d: Sum(rhs),rhsMax =  -7.67030741144481E-08  9.25830830078040E+00
 cg2d: Sum(rhs),rhsMax =  -7.67362919873449E-08  9.25427464244149E+00
 cg2d: Sum(rhs),rhsMax =  -7.67699646075926E-08  9.25018420208542E+00
 cg2d: Sum(rhs),rhsMax =  -7.68039853937807E-08  9.24603467114681E+00
 cg2d: Sum(rhs),rhsMax =  -7.68388872529613E-08  9.24182397900772E+00
 cg2d: Sum(rhs),rhsMax =  -7.68742154377833E-08  9.23755034859452E+00
 cg2d: Sum(rhs),rhsMax =  -7.69100552133750E-08  9.23321234366443E+00
 cg2d: Sum(rhs),rhsMax =  -7.69468400108053E-08  9.22880889968266E+00
 cg2d: Sum(rhs),rhsMax =  -7.69835182268253E-08  9.22433933197490E+00
 cg2d: Sum(rhs),rhsMax =  -7.70209354072904E-08  9.21980332836426E+00
 cg2d: Sum(rhs),rhsMax =  -7.70591341847648E-08  9.21520093492414E+00
 cg2d: Sum(rhs),rhsMax =  -7.70982282460864E-08  9.21053254057723E+00
 cg2d: Sum(rhs),rhsMax =  -7.71375923136475E-08  9.20579886154174E+00
 cg2d: Sum(rhs),rhsMax =  -7.71773187580038E-08  9.20100092277316E+00
 cg2d: Sum(rhs),rhsMax =  -7.72178623265063E-08  9.19614003508373E+00
 cg2d: Sum(rhs),rhsMax =  -7.72588606423597E-08  9.19121776376076E+00
 cg2d: Sum(rhs),rhsMax =  -7.73005126575299E-08  9.18623589368687E+00
 cg2d: Sum(rhs),rhsMax =  -7.73430812728293E-08  9.18119640414723E+00
 cg2d: Sum(rhs),rhsMax =  -7.73854154090259E-08  9.17610144209478E+00
 EXTERNAL_FIELDS_LOAD, it=   3600450 : Reading new data, i0,i1=    8    9 (prev=    7    8 )
 DIC_FIELDS_LOAD, it=   3600450 : Reading new data, i0,i1=    8    9 (prev=    7    8 )
 cg2d: Sum(rhs),rhsMax =  -7.74284956150950E-08  9.17095326904567E+00
 cg2d: Sum(rhs),rhsMax =  -7.74719595142415E-08  9.16576412699309E+00
 cg2d: Sum(rhs),rhsMax =  -7.75162902755255E-08  9.16054233368469E+00
 cg2d: Sum(rhs),rhsMax =  -7.75600952351851E-08  9.15529583959941E+00
 cg2d: Sum(rhs),rhsMax =  -7.76045467887343E-08  9.15003201693785E+00
 cg2d: Sum(rhs),rhsMax =  -7.76489557097193E-08  9.14475750599293E+00
 cg2d: Sum(rhs),rhsMax =  -7.76937127966448E-08  9.13947810620331E+00
 cg2d: Sum(rhs),rhsMax =  -7.77385196215619E-08  9.13419871539155E+00
 cg2d: Sum(rhs),rhsMax =  -7.77830635456667E-08  9.12892331307296E+00
 cg2d: Sum(rhs),rhsMax =  -7.78277424728913E-08  9.12365496001899E+00
 cg2d: Sum(rhs),rhsMax =  -7.78721371830216E-08  9.11839580250666E+00
 cg2d: Sum(rhs),rhsMax =  -7.79170150622122E-08  9.11314707861780E+00
 cg2d: Sum(rhs),rhsMax =  -7.79618360979839E-08  9.10790912686148E+00
 cg2d: Sum(rhs),rhsMax =  -7.80063302840972E-08  9.10268140327570E+00
 cg2d: Sum(rhs),rhsMax =  -7.80512792175614E-08  9.09746251290633E+00
 cg2d: Sum(rhs),rhsMax =  -7.80961926238888E-08  9.09225025831423E+00
 cg2d: Sum(rhs),rhsMax =  -7.81409141836775E-08  9.08704170372423E+00
 cg2d: Sum(rhs),rhsMax =  -7.81859057497059E-08  9.08183325412304E+00
 cg2d: Sum(rhs),rhsMax =  -7.82307836288965E-08  9.07662074967284E+00
 cg2d: Sum(rhs),rhsMax =  -7.82759315143267E-08  9.07139957792224E+00
 cg2d: Sum(rhs),rhsMax =   9.38196436095495E-08  9.06616499983929E+00
 cg2d: Sum(rhs),rhsMax =   9.38740072342625E-08  9.06091151549761E+00
 cg2d: Sum(rhs),rhsMax =   9.39284774403859E-08  9.05563418298807E+00
 cg2d: Sum(rhs),rhsMax =   9.39835445024073E-08  9.05032797507980E+00
 cg2d: Sum(rhs),rhsMax =   9.40389597303692E-08  9.04498813634141E+00
 cg2d: Sum(rhs),rhsMax =   9.40947018079896E-08  9.03961032311272E+00
 cg2d: Sum(rhs),rhsMax =   9.41511117957816E-08  9.03419072487800E+00
 cg2d: Sum(rhs),rhsMax =   9.42079338983604E-08  9.02872616643078E+00
 cg2d: Sum(rhs),rhsMax =   9.42653173297003E-08  9.02321418954941E+00
 cg2d: Sum(rhs),rhsMax =   9.43237026262977E-08  9.01765310590659E+00
 cg2d: Sum(rhs),rhsMax =   9.38196436095495E-08  9.06616499983929E+00
 cg2d: Sum(rhs),rhsMax =   9.38740072342625E-08  9.06091151549761E+00
 cg2d: Sum(rhs),rhsMax =   9.39284774403859E-08  9.05563418298807E+00
 cg2d: Sum(rhs),rhsMax =   9.39835445024073E-08  9.05032797507980E+00
 cg2d: Sum(rhs),rhsMax =   9.40389597303692E-08  9.04498813634141E+00
 cg2d: Sum(rhs),rhsMax =   9.40947018079896E-08  9.03961032311272E+00
 cg2d: Sum(rhs),rhsMax =   9.41511117957816E-08  9.03419072487800E+00
 cg2d: Sum(rhs),rhsMax =   9.42079338983604E-08  9.02872616643078E+00
 cg2d: Sum(rhs),rhsMax =   9.42653173297003E-08  9.02321418954941E+00
 cg2d: Sum(rhs),rhsMax =   4.24712794711013E-07  9.01765312163555E+00
 cg2d: Sum(rhs),rhsMax =   6.32582874970922E-12  2.71680031113812E-02
 cg2d: Sum(rhs),rhsMax =   9.38196436095495E-08  9.06616499983929E+00
 cg2d: Sum(rhs),rhsMax =   9.38740072342625E-08  9.06091151549761E+00
 cg2d: Sum(rhs),rhsMax =   9.39284774403859E-08  9.05563418298807E+00
 cg2d: Sum(rhs),rhsMax =   9.39835445024073E-08  9.05032797507980E+00
 cg2d: Sum(rhs),rhsMax =   9.40389597303692E-08  9.04498813634141E+00
 cg2d: Sum(rhs),rhsMax =   9.40947018079896E-08  9.03961032311272E+00
 cg2d: Sum(rhs),rhsMax =   9.41511117957816E-08  9.03419072487800E+00
 cg2d: Sum(rhs),rhsMax =   9.42079338983604E-08  9.02872616643078E+00
 cg2d: Sum(rhs),rhsMax =   4.63951401741269E-07  9.02321395261087E+00
 cg2d: Sum(rhs),rhsMax =   6.26215745924696E-12  2.74266537301303E-02
 cg2d: Sum(rhs),rhsMax =   9.38196436095495E-08  9.06616499983929E+00
 cg2d: Sum(rhs),rhsMax =   9.38740072342625E-08  9.06091151549761E+00
 cg2d: Sum(rhs),rhsMax =   9.39284774403859E-08  9.05563418298807E+00
 cg2d: Sum(rhs),rhsMax =   9.39835445024073E-08  9.05032797507980E+00
 cg2d: Sum(rhs),rhsMax =   9.40389597303692E-08  9.04498813634141E+00
 cg2d: Sum(rhs),rhsMax =   9.40947018079896E-08  9.03961032311272E+00
 cg2d: Sum(rhs),rhsMax =   9.41511117957816E-08  9.03419072487800E+00
 cg2d: Sum(rhs),rhsMax =   2.74782820497421E-07  9.02872589701967E+00
 cg2d: Sum(rhs),rhsMax =   6.27264906682967E-12  2.72947902221715E-02
 cg2d: Sum(rhs),rhsMax =   9.38196436095495E-08  9.06616499983929E+00
 cg2d: Sum(rhs),rhsMax =   9.38740072342625E-08  9.06091151549761E+00
 cg2d: Sum(rhs),rhsMax =   9.39284774403859E-08  9.05563418298807E+00
 cg2d: Sum(rhs),rhsMax =   9.39835445024073E-08  9.05032797507980E+00
 cg2d: Sum(rhs),rhsMax =   9.40389597303692E-08  9.04498813634141E+00
 cg2d: Sum(rhs),rhsMax =   9.40947018079896E-08  9.03961032311272E+00
 cg2d: Sum(rhs),rhsMax =   1.44452890538105E-07  9.03419055426757E+00
 cg2d: Sum(rhs),rhsMax =   6.34570174185001E-12  2.70229881903959E-02
 cg2d: Sum(rhs),rhsMax =   9.38196436095495E-08  9.06616499983929E+00
 cg2d: Sum(rhs),rhsMax =   9.38740072342625E-08  9.06091151549761E+00
 cg2d: Sum(rhs),rhsMax =   9.39284774403859E-08  9.05563418298807E+00
 cg2d: Sum(rhs),rhsMax =   9.39835445024073E-08  9.05032797507980E+00
 cg2d: Sum(rhs),rhsMax =   9.40389597303692E-08  9.04498813634141E+00
 cg2d: Sum(rhs),rhsMax =   1.11984805784004E-06  9.03961034719218E+00
 cg2d: Sum(rhs),rhsMax =   6.43829434210375E-12  2.68169354322455E-02
 cg2d: Sum(rhs),rhsMax =   9.38196436095495E-08  9.06616499983929E+00
 cg2d: Sum(rhs),rhsMax =   9.38740072342625E-08  9.06091151549761E+00
 cg2d: Sum(rhs),rhsMax =   9.39284774403859E-08  9.05563418298807E+00
 cg2d: Sum(rhs),rhsMax =   9.39835445024073E-08  9.05032797507980E+00
 cg2d: Sum(rhs),rhsMax =  -1.03029310594138E-06  9.04498780574914E+00
 cg2d: Sum(rhs),rhsMax =   6.61937171742011E-12  2.65488529985927E-02
 cg2d: Sum(rhs),rhsMax =   9.38196436095495E-08  9.06616499983929E+00
 cg2d: Sum(rhs),rhsMax =   9.38740072342625E-08  9.06091151549761E+00
 cg2d: Sum(rhs),rhsMax =   9.39284774403859E-08  9.05563418298807E+00
 cg2d: Sum(rhs),rhsMax =  -7.63644862900037E-07  9.05032786141511E+00
 cg2d: Sum(rhs),rhsMax =   6.47720765911686E-12  2.73296307111596E-02
 cg2d: Sum(rhs),rhsMax =   9.38196436095495E-08  9.06616499983929E+00
 cg2d: Sum(rhs),rhsMax =   9.38740072342625E-08  9.06091151549761E+00
 cg2d: Sum(rhs),rhsMax =  -7.55226935211795E-07  9.05563403998145E+00
 cg2d: Sum(rhs),rhsMax =   6.49869047464335E-12  2.75636525709913E-02
 cg2d: Sum(rhs),rhsMax =   9.38196436095495E-08  9.06616499983929E+00
 cg2d: Sum(rhs),rhsMax =  -5.62151583949344E-07  9.06091155519467E+00
 cg2d: Sum(rhs),rhsMax =   6.58983978496508E-12  2.71767732159762E-02
 cg2d: Sum(rhs),rhsMax =   9.38197075583957E-08  9.06616499941181E+00
 cg2d: Sum(rhs),rhsMax =   6.34875485516773E-12  2.85287461288420E-02
 cg2d: Sum(rhs),rhsMax =  -7.46576347410155E-08  9.50907671569018E+00
 cg2d: Sum(rhs),rhsMax =  -7.46636956705515E-08  9.50827538007810E+00
 cg2d: Sum(rhs),rhsMax =  -7.46696002806857E-08  9.50759038673436E+00
 cg2d: Sum(rhs),rhsMax =  -7.46738635371003E-08  9.50702164848735E+00
 cg2d: Sum(rhs),rhsMax =  -7.46774944104800E-08  9.50656668487862E+00
 cg2d: Sum(rhs),rhsMax =  -7.46800878914655E-08  9.50622069715104E+00
 cg2d: Sum(rhs),rhsMax =  -7.46821626762539E-08  9.50597670066013E+00
 cg2d: Sum(rhs),rhsMax =  -7.46832924392038E-08  9.50582571630982E+00
 cg2d: Sum(rhs),rhsMax =  -7.46840456145037E-08  9.50575700943737E+00
 cg2d: Sum(rhs),rhsMax =  -7.46835624454434E-08  9.50575837107225E+00
 cg2d: Sum(rhs),rhsMax =  -7.46833208609132E-08  9.50581645922263E+00
 cg2d: Sum(rhs),rhsMax =  -7.46821982033907E-08  9.50591711991761E+00
 cg2d: Sum(rhs),rhsMax =  -7.46813526575352E-08  9.50604571310823E+00
 cg2d: Sum(rhs),rhsMax =  -7.46798960449269E-08  9.50618745972881E+00
 cg2d: Sum(rhs),rhsMax =  -7.46791073424902E-08  9.50632780119137E+00
 cg2d: Sum(rhs),rhsMax =  -7.46779846849677E-08  9.50645275158785E+00
 cg2d: Sum(rhs),rhsMax =  -7.46776720461639E-08  9.50654922994562E+00
 cg2d: Sum(rhs),rhsMax =  -7.46771249282574E-08  9.50660536798306E+00
 cg2d: Sum(rhs),rhsMax =  -7.46771320336848E-08  9.50661078108177E+00
 cg2d: Sum(rhs),rhsMax =  -7.46778141547111E-08  9.50655679154863E+00
 cg2d: Sum(rhs),rhsMax =  -7.46784394323186E-08  9.50643658250018E+00
 cg2d: Sum(rhs),rhsMax =  -7.46802726325768E-08  9.50624530490270E+00
 cg2d: Sum(rhs),rhsMax =  -7.46821271491172E-08  9.50598009866199E+00
 cg2d: Sum(rhs),rhsMax =  -7.46850545851885E-08  9.50564005870858E+00
 cg2d: Sum(rhs),rhsMax =  -7.46883372926277E-08  9.50522619443621E+00
 cg2d: Sum(rhs),rhsMax =  -7.46918829008791E-08  9.50474133855045E+00
 cg2d: Sum(rhs),rhsMax =  -7.46962030007126E-08  9.50418990415982E+00
 cg2d: Sum(rhs),rhsMax =  -7.47013260138374E-08  9.50357767429962E+00
 cg2d: Sum(rhs),rhsMax =  -7.47062216532868E-08  9.50291163791579E+00
 cg2d: Sum(rhs),rhsMax =  -7.47126236433360E-08  9.50219980056318E+00
 cg2d: Sum(rhs),rhsMax =  -7.47184074612051E-08  9.50145094748729E+00
 cg2d: Sum(rhs),rhsMax =  -7.47247455024080E-08  9.50067438045622E+00
 cg2d: Sum(rhs),rhsMax =  -7.47313322335685E-08  9.49987965703835E+00
 cg2d: Sum(rhs),rhsMax =  -7.47377768561819E-08  9.49907634096511E+00
 cg2d: Sum(rhs),rhsMax =  -7.47441433190943E-08  9.49827377465974E+00
 cg2d: Sum(rhs),rhsMax =  -7.47505310982888E-08  9.49748086980356E+00
 cg2d: Sum(rhs),rhsMax =  -7.47569046666285E-08  9.49670591827534E+00
 cg2d: Sum(rhs),rhsMax =  -7.47627666441986E-08  9.49595642566026E+00
 cg2d: Sum(rhs),rhsMax =  -7.47686570434780E-08  9.49523896197083E+00
 cg2d: Sum(rhs),rhsMax =  -7.47742205930990E-08  9.49455904201468E+00
 cg2d: Sum(rhs),rhsMax =  -7.47793578170786E-08  9.49392104808525E+00
 cg2d: Sum(rhs),rhsMax =  -7.47843102999468E-08  9.49332815058320E+00
 cg2d: Sum(rhs),rhsMax =  -7.47889217223019E-08  9.49278226320107E+00
 cg2d: Sum(rhs),rhsMax =  -7.47930855027334E-08  9.49228403703651E+00
 cg2d: Sum(rhs),rhsMax =  -7.47963611047453E-08  9.49183288684206E+00
 cg2d: Sum(rhs),rhsMax =  -7.48000417161165E-08  9.49142705076112E+00
 cg2d: Sum(rhs),rhsMax =  -7.48029052033417E-08  9.49106366991647E+00
 cg2d: Sum(rhs),rhsMax =  -7.48058113231309E-08  9.49073888097194E+00
 cg2d: Sum(rhs),rhsMax =  -7.48079642676203E-08  9.49044792286002E+00
 cg2d: Sum(rhs),rhsMax =  -7.48104369563407E-08  9.49018527463466E+00
 EXTERNAL_FIELDS_LOAD, it=   3600330 : Reading new data, i0,i1=    6    7 (prev=    5    9 )
 DIC_FIELDS_LOAD, it=   3600330 : Reading new data, i0,i1=    6    7 (prev=    5    6 )
 cg2d: Sum(rhs),rhsMax =  -7.48125685845480E-08  9.48994481428126E+00
 cg2d: Sum(rhs),rhsMax =  -7.48145367879260E-08  9.48970977028949E+00
 cg2d: Sum(rhs),rhsMax =  -7.48167536812616E-08  9.48946667050908E+00
 cg2d: Sum(rhs),rhsMax =  -7.48186579357935E-08  9.48920195983684E+00
 cg2d: Sum(rhs),rhsMax =  -7.48212727330611E-08  9.48890231838115E+00
 cg2d: Sum(rhs),rhsMax =  -7.48240864822947E-08  9.48855490239494E+00
 cg2d: Sum(rhs),rhsMax =  -7.48277528828112E-08  9.48814760448955E+00
 cg2d: Sum(rhs),rhsMax =  -7.48317106058494E-08  9.48766929469714E+00
 cg2d: Sum(rhs),rhsMax =  -7.48361301816658E-08  9.48711003726197E+00
 cg2d: Sum(rhs),rhsMax =  -7.48412745110727E-08  9.48646127184076E+00
 cg2d: Sum(rhs),rhsMax =  -7.48473496514634E-08  9.48571598443359E+00
 cg2d: Sum(rhs),rhsMax =  -7.48540713857437E-08  9.48486884714226E+00
 cg2d: Sum(rhs),rhsMax =  -7.48618091961362E-08  9.48391631089758E+00
 cg2d: Sum(rhs),rhsMax =  -7.48703143926832E-08  9.48285664384895E+00
 cg2d: Sum(rhs),rhsMax =  -7.48790469629057E-08  9.48168991622247E+00
 cg2d: Sum(rhs),rhsMax =  -7.48895487845402E-08  9.48041794354397E+00
 cg2d: Sum(rhs),rhsMax =  -7.49003561395511E-08  9.47904418707887E+00
 cg2d: Sum(rhs),rhsMax =  -7.49121227272553E-08  9.47757361133926E+00
 cg2d: Sum(rhs),rhsMax =  -7.49249196019264E-08  9.47601250495736E+00
 cg2d: Sum(rhs),rhsMax =  -7.49377875308710E-08  9.47436827146146E+00
 cg2d: Sum(rhs),rhsMax =  -7.49514157405429E-08  9.47264919973884E+00
 cg2d: Sum(rhs),rhsMax =  -7.49656123844034E-08  9.47086422427234E+00
 cg2d: Sum(rhs),rhsMax =  -7.49802140376232E-08  9.46902267691356E+00
 cg2d: Sum(rhs),rhsMax =  -7.49953059653308E-08  9.46713403481286E+00
 cg2d: Sum(rhs),rhsMax =  -7.50105257907308E-08  9.46520767024855E+00
 cg2d: Sum(rhs),rhsMax =  -7.50263424720288E-08  9.46325259778073E+00
 cg2d: Sum(rhs),rhsMax =  -7.50422373130277E-08  9.46127726524814E+00
 cg2d: Sum(rhs),rhsMax =  -7.50577768826588E-08  9.45928937477588E+00
 cg2d: Sum(rhs),rhsMax =  -7.50738990973332E-08  9.45729571583441E+00
 cg2d: Sum(rhs),rhsMax =  -7.50896163026482E-08  9.45530206338839E+00
 cg2d: Sum(rhs),rhsMax =  -7.51056461467670E-08  9.45331309804778E+00
 cg2d: Sum(rhs),rhsMax =  -7.51212709815263E-08  9.45133234916556E+00
 cg2d: Sum(rhs),rhsMax =  -7.51373789853460E-08  9.44936217148271E+00
 cg2d: Sum(rhs),rhsMax =  -7.51527906572846E-08  9.44740375781686E+00
 cg2d: Sum(rhs),rhsMax =  -7.51685931277279E-08  9.44545718748645E+00
 cg2d: Sum(rhs),rhsMax =  -7.51841966462052E-08  9.44352151007986E+00
 cg2d: Sum(rhs),rhsMax =  -7.51994591041694E-08  9.44159486329961E+00
 cg2d: Sum(rhs),rhsMax =  -7.52147784055524E-08  9.43967460290015E+00
 cg2d: Sum(rhs),rhsMax =  -7.52305737705683E-08  9.43775744343237E+00
 cg2d: Sum(rhs),rhsMax =  -7.52457793851136E-08  9.43583960877673E+00
 cg2d: Sum(rhs),rhsMax =  -7.52614752741465E-08  9.43391698185443E+00
 cg2d: Sum(rhs),rhsMax =  -7.52768585243757E-08  9.43198524752366E+00
 cg2d: Sum(rhs),rhsMax =  -7.52925899405454E-08  9.43004003060471E+00
 cg2d: Sum(rhs),rhsMax =  -7.53084705706897E-08  9.42807701983885E+00
 cg2d: Sum(rhs),rhsMax =  -7.53246993667744E-08  9.42609207475689E+00
 cg2d: Sum(rhs),rhsMax =  -7.53408997411498E-08  9.42408132282525E+00
 cg2d: Sum(rhs),rhsMax =  -7.53572138023628E-08  9.42204124662806E+00
 cg2d: Sum(rhs),rhsMax =  -7.53741673520381E-08  9.41996876781019E+00
 cg2d: Sum(rhs),rhsMax =  -7.53910782691491E-08  9.41786131641806E+00
 cg2d: Sum(rhs),rhsMax =  -7.54086713072866E-08  9.41571688244791E+00
 cg2d: Sum(rhs),rhsMax =  -7.54266125113645E-08  9.41353407021840E+00
 cg2d: Sum(rhs),rhsMax =  -7.54444755557415E-08  9.41131216516102E+00
 cg2d: Sum(rhs),rhsMax =  -7.54630704591364E-08  9.40905115996980E+00
 cg2d: Sum(rhs),rhsMax =  -7.54816795733859E-08  9.40675174533744E+00
 cg2d: Sum(rhs),rhsMax =  -7.55005373775930E-08  9.40441527809810E+00
 cg2d: Sum(rhs),rhsMax =  -7.55200275648349E-08  9.40204373790542E+00
 cg2d: Sum(rhs),rhsMax =  -7.55398446017352E-08  9.39963967991296E+00
 cg2d: Sum(rhs),rhsMax =  -7.55594129486781E-08  9.39720618276624E+00
 cg2d: Sum(rhs),rhsMax =  -7.55797202600661E-08  9.39474678273504E+00
 cg2d: Sum(rhs),rhsMax =  -7.56002052071381E-08  9.39226540565015E+00
 EXTERNAL_FIELDS_LOAD, it=   3600390 : Reading new data, i0,i1=    7    8 (prev=    6    7 )
 DIC_FIELDS_LOAD, it=   3600390 : Reading new data, i0,i1=    7    8 (prev=    6    7 )
 cg2d: Sum(rhs),rhsMax =  -7.56204627805346E-08  9.38976628030644E+00
 cg2d: Sum(rhs),rhsMax =  -7.56415232672225E-08  9.38724775533259E+00
 cg2d: Sum(rhs),rhsMax =  -7.56618732111747E-08  9.38470942901966E+00
 cg2d: Sum(rhs),rhsMax =  -7.56830758064098E-08  9.38215030318780E+00
 cg2d: Sum(rhs),rhsMax =  -7.57043636667731E-08  9.37956883924381E+00
 cg2d: Sum(rhs),rhsMax =  -7.57257581085469E-08  9.37696305631202E+00
 cg2d: Sum(rhs),rhsMax =  -7.57472449208763E-08  9.37433065622099E+00
 cg2d: Sum(rhs),rhsMax =  -7.57689306851717E-08  9.37166915330181E+00
 cg2d: Sum(rhs),rhsMax =  -7.57913838356217E-08  9.36897600473142E+00
 cg2d: Sum(rhs),rhsMax =  -7.58139293566273E-08  9.36624871729081E+00
 cg2d: Sum(rhs),rhsMax =  -7.58368727815650E-08  9.36348495363947E+00
 cg2d: Sum(rhs),rhsMax =  -7.58596883088103E-08  9.36068261643794E+00
 cg2d: Sum(rhs),rhsMax =  -7.58831930625092E-08  9.35783991548456E+00
 cg2d: Sum(rhs),rhsMax =  -7.59071596689864E-08  9.35495541522523E+00
 cg2d: Sum(rhs),rhsMax =  -7.59316307608060E-08  9.35202806312956E+00
 cg2d: Sum(rhs),rhsMax =  -7.59561444851897E-08  9.34905718311665E+00
 cg2d: Sum(rhs),rhsMax =  -7.59807505801291E-08  9.34604244734688E+00
 cg2d: Sum(rhs),rhsMax =  -7.60062519589155E-08  9.34298385173757E+00
 cg2d: Sum(rhs),rhsMax =  -7.60316041237274E-08  9.33988171405705E+00
 cg2d: Sum(rhs),rhsMax =  -7.60576810421298E-08  9.33673667089172E+00
 cg2d: Sum(rhs),rhsMax =  -7.60842198133105E-08  9.33354966433849E+00
 cg2d: Sum(rhs),rhsMax =  -7.61109362201751E-08  9.33032189428481E+00
 cg2d: Sum(rhs),rhsMax =  -7.61379794766981E-08  9.32705473610878E+00
 cg2d: Sum(rhs),rhsMax =  -7.61650014169390E-08  9.32374964223594E+00
 cg2d: Sum(rhs),rhsMax =  -7.61924070502573E-08  9.32040805771324E+00
 cg2d: Sum(rhs),rhsMax =  -7.62202390092170E-08  9.31703133797851E+00
 cg2d: Sum(rhs),rhsMax =  -7.62486536132201E-08  9.31362068532222E+00
 cg2d: Sum(rhs),rhsMax =  -7.62769758466675E-08  9.31017709807696E+00
 cg2d: Sum(rhs),rhsMax =  -7.63053833452432E-08  9.30670132260387E+00
 cg2d: Sum(rhs),rhsMax =  -7.63343095400160E-08  9.30319380786966E+00
 cg2d: Sum(rhs),rhsMax =  -7.63631078370963E-08  9.29965466644313E+00
 cg2d: Sum(rhs),rhsMax =  -7.63924603575106E-08  9.29608366095666E+00
 cg2d: Sum(rhs),rhsMax =  -7.64222036764295E-08  9.29248016366683E+00
 cg2d: Sum(rhs),rhsMax =  -7.64520393659041E-08  9.28884314276847E+00
 cg2d: Sum(rhs),rhsMax =  -7.64822445376012E-08  9.28517117681256E+00
 cg2d: Sum(rhs),rhsMax =  -7.65125633961361E-08  9.28146248933914E+00
 cg2d: Sum(rhs),rhsMax =  -7.65432446314662E-08  9.27771499430064E+00
 cg2d: Sum(rhs),rhsMax =  -7.65746861475236E-08  9.27392634829171E+00
 cg2d: Sum(rhs),rhsMax =  -7.66061276635810E-08  9.27009401586145E+00
 cg2d: Sum(rhs),rhsMax =  -7.66378391858780E-08  9.26621534803516E+00
 cg2d: Sum(rhs),rhsMax =  -7.66705383625776E-08  9.26228766593419E+00
 cg2d: Sum(rhs),rhsMax =  -7.67030741144481E-08  9.25830830078040E+00
 cg2d: Sum(rhs),rhsMax =  -7.67362919873449E-08  9.25427464244149E+00
 cg2d: Sum(rhs),rhsMax =  -7.67699646075926E-08  9.25018420208542E+00
 cg2d: Sum(rhs),rhsMax =  -7.68039853937807E-08  9.24603467114681E+00
 cg2d: Sum(rhs),rhsMax =  -7.68388872529613E-08  9.24182397900772E+00
 cg2d: Sum(rhs),rhsMax =  -7.68742154377833E-08  9.23755034859452E+00
 cg2d: Sum(rhs),rhsMax =  -7.69100552133750E-08  9.23321234366443E+00
 cg2d: Sum(rhs),rhsMax =  -7.69468400108053E-08  9.22880889968266E+00
 cg2d: Sum(rhs),rhsMax =  -7.69835182268253E-08  9.22433933197490E+00
 cg2d: Sum(rhs),rhsMax =  -7.70209354072904E-08  9.21980332836426E+00
 cg2d: Sum(rhs),rhsMax =  -7.70591341847648E-08  9.21520093492414E+00
 cg2d: Sum(rhs),rhsMax =  -7.70982282460864E-08  9.21053254057723E+00
 cg2d: Sum(rhs),rhsMax =  -7.71375923136475E-08  9.20579886154174E+00
 cg2d: Sum(rhs),rhsMax =  -7.71773187580038E-08  9.20100092277316E+00
 cg2d: Sum(rhs),rhsMax =  -7.72178623265063E-08  9.19614003508373E+00
 cg2d: Sum(rhs),rhsMax =  -7.72588606423597E-08  9.19121776376076E+00
 cg2d: Sum(rhs),rhsMax =  -7.73005126575299E-08  9.18623589368687E+00
 cg2d: Sum(rhs),rhsMax =  -7.73430812728293E-08  9.18119640414723E+00
 cg2d: Sum(rhs),rhsMax =  -7.73854154090259E-08  9.17610144209478E+00
 EXTERNAL_FIELDS_LOAD, it=   3600450 : Reading new data, i0,i1=    8    9 (prev=    7    8 )
 DIC_FIELDS_LOAD, it=   3600450 : Reading new data, i0,i1=    8    9 (prev=    7    8 )
 cg2d: Sum(rhs),rhsMax =  -7.74284956150950E-08  9.17095326904567E+00
 cg2d: Sum(rhs),rhsMax =  -7.74719595142415E-08  9.16576412699309E+00
 cg2d: Sum(rhs),rhsMax =  -7.75162902755255E-08  9.16054233368469E+00
 cg2d: Sum(rhs),rhsMax =  -7.75600952351851E-08  9.15529583959941E+00
 cg2d: Sum(rhs),rhsMax =  -7.76045467887343E-08  9.15003201693785E+00
 cg2d: Sum(rhs),rhsMax =  -7.76489557097193E-08  9.14475750599293E+00
 cg2d: Sum(rhs),rhsMax =  -7.76937127966448E-08  9.13947810620331E+00
 cg2d: Sum(rhs),rhsMax =  -7.77385196215619E-08  9.13419871539155E+00
 cg2d: Sum(rhs),rhsMax =  -7.77830635456667E-08  9.12892331307296E+00
 cg2d: Sum(rhs),rhsMax =  -7.78277424728913E-08  9.12365496001899E+00
 cg2d: Sum(rhs),rhsMax =  -2.14100111861626E-07  9.11839584723313E+00
 cg2d: Sum(rhs),rhsMax =  -2.14223334182861E-07  9.11314709494824E+00
 cg2d: Sum(rhs),rhsMax =  -2.14346648874653E-07  9.10790909011670E+00
 cg2d: Sum(rhs),rhsMax =  -2.14469721981914E-07  9.10268130006310E+00
 cg2d: Sum(rhs),rhsMax =  -2.14592553504644E-07  9.09746233907387E+00
 cg2d: Sum(rhs),rhsMax =  -2.14715306867674E-07  9.09225001436230E+00
 cg2d: Sum(rhs),rhsMax =  -2.14838351553226E-07  9.08704139206844E+00
 cg2d: Sum(rhs),rhsMax =  -2.14961886513265E-07  9.08183287790970E+00
 cg2d: Sum(rhs),rhsMax =  -2.15085051991082E-07  9.07662031202687E+00
 cg2d: Sum(rhs),rhsMax =  -2.15209112752746E-07  9.07139908139146E+00
 cg2d: Sum(rhs),rhsMax =  -2.14100111861626E-07  9.11839584723313E+00
 cg2d: Sum(rhs),rhsMax =  -2.14223334182861E-07  9.11314709494824E+00
 cg2d: Sum(rhs),rhsMax =  -2.14346648874653E-07  9.10790909011670E+00
 cg2d: Sum(rhs),rhsMax =  -2.14469721981914E-07  9.10268130006310E+00
 cg2d: Sum(rhs),rhsMax =  -2.14592553504644E-07  9.09746233907387E+00
 cg2d: Sum(rhs),rhsMax =  -2.14715306867674E-07  9.09225001436230E+00
 cg2d: Sum(rhs),rhsMax =  -2.14838351553226E-07  9.08704139206844E+00
 cg2d: Sum(rhs),rhsMax =  -2.14961886513265E-07  9.08183287790970E+00
 cg2d: Sum(rhs),rhsMax =  -2.15085051991082E-07  9.07662031202687E+00
 cg2d: Sum(rhs),rhsMax =  -2.87664498443974E-07  9.07139904921745E+00
 cg2d: Sum(rhs),rhsMax =   6.41098285569797E-12  2.84124809026249E-02
 cg2d: Sum(rhs),rhsMax =  -2.14100111861626E-07  9.11839584723313E+00
 cg2d: Sum(rhs),rhsMax =  -2.14223334182861E-07  9.11314709494824E+00
 cg2d: Sum(rhs),rhsMax =  -2.14346648874653E-07  9.10790909011670E+00
 cg2d: Sum(rhs),rhsMax =  -2.14469721981914E-07  9.10268130006310E+00
 cg2d: Sum(rhs),rhsMax =  -2.14592553504644E-07  9.09746233907387E+00
 cg2d: Sum(rhs),rhsMax =  -2.14715306867674E-07  9.09225001436230E+00
 cg2d: Sum(rhs),rhsMax =  -2.14838351553226E-07  9.08704139206844E+00
 cg2d: Sum(rhs),rhsMax =  -2.14961886513265E-07  9.08183287790970E+00
 cg2d: Sum(rhs),rhsMax =  -1.68166749858756E-07  9.07662019077173E+00
 cg2d: Sum(rhs),rhsMax =   6.56052989711498E-12  2.76780995475485E-02
 cg2d: Sum(rhs),rhsMax =  -2.14100111861626E-07  9.11839584723313E+00
 cg2d: Sum(rhs),rhsMax =  -2.14223334182861E-07  9.11314709494824E+00
 cg2d: Sum(rhs),rhsMax =  -2.14346648874653E-07  9.10790909011670E+00
 cg2d: Sum(rhs),rhsMax =  -2.14469721981914E-07  9.10268130006310E+00
 cg2d: Sum(rhs),rhsMax =  -2.14592553504644E-07  9.09746233907387E+00
 cg2d: Sum(rhs),rhsMax =  -2.14715306867674E-07  9.09225001436230E+00
 cg2d: Sum(rhs),rhsMax =  -2.14838351553226E-07  9.08704139206844E+00
 cg2d: Sum(rhs),rhsMax =   1.13781595700857E-07  9.08183260588402E+00
 cg2d: Sum(rhs),rhsMax =   6.76114719766474E-12  2.71847509985349E-02
 cg2d: Sum(rhs),rhsMax =  -2.14100111861626E-07  9.11839584723313E+00
 cg2d: Sum(rhs),rhsMax =  -2.14223334182861E-07  9.11314709494824E+00
 cg2d: Sum(rhs),rhsMax =  -2.14346648874653E-07  9.10790909011670E+00
 cg2d: Sum(rhs),rhsMax =  -2.14469721981914E-07  9.10268130006310E+00
 cg2d: Sum(rhs),rhsMax =  -2.14592553504644E-07  9.09746233907387E+00
 cg2d: Sum(rhs),rhsMax =  -2.14715306867674E-07  9.09225001436230E+00
 cg2d: Sum(rhs),rhsMax =  -7.63316805318937E-08  9.08704141592254E+00
 cg2d: Sum(rhs),rhsMax =   6.84940992812244E-12  2.69309503263330E-02
 cg2d: Sum(rhs),rhsMax =  -2.14100111861626E-07  9.11839584723313E+00
 cg2d: Sum(rhs),rhsMax =  -2.14223334182861E-07  9.11314709494824E+00
 cg2d: Sum(rhs),rhsMax =  -2.14346648874653E-07  9.10790909011670E+00
 cg2d: Sum(rhs),rhsMax =  -2.14469721981914E-07  9.10268130006310E+00
 cg2d: Sum(rhs),rhsMax =  -2.14592553504644E-07  9.09746233907387E+00
 cg2d: Sum(rhs),rhsMax =  -4.95569011604857E-07  9.09225030244962E+00
 cg2d: Sum(rhs),rhsMax =   6.87727652604053E-12  2.72544505470305E-02
 cg2d: Sum(rhs),rhsMax =  -2.14100111861626E-07  9.11839584723313E+00
 cg2d: Sum(rhs),rhsMax =  -2.14223334182861E-07  9.11314709494824E+00
 cg2d: Sum(rhs),rhsMax =  -2.14346648874653E-07  9.10790909011670E+00
 cg2d: Sum(rhs),rhsMax =  -2.14469721981914E-07  9.10268130006310E+00
 cg2d: Sum(rhs),rhsMax =  -8.05074435561437E-07  9.09746225021473E+00
 cg2d: Sum(rhs),rhsMax =   6.84108325543775E-12  2.75188399014928E-02
 cg2d: Sum(rhs),rhsMax =  -2.14100111861626E-07  9.11839584723313E+00
 cg2d: Sum(rhs),rhsMax =  -2.14223334182861E-07  9.11314709494824E+00
 cg2d: Sum(rhs),rhsMax =  -2.14346648874653E-07  9.10790909011670E+00
 cg2d: Sum(rhs),rhsMax =   5.58829640340264E-07  9.10268110610376E+00
 cg2d: Sum(rhs),rhsMax =   6.86417589434996E-12  2.76577910443969E-02
 cg2d: Sum(rhs),rhsMax =  -2.14100111861626E-07  9.11839584723313E+00
 cg2d: Sum(rhs),rhsMax =  -2.14223334182861E-07  9.11314709494824E+00
 cg2d: Sum(rhs),rhsMax =   4.17347258974132E-07  9.10790920739855E+00
 cg2d: Sum(rhs),rhsMax =   6.95166146869042E-12  2.76709605615410E-02
 cg2d: Sum(rhs),rhsMax =  -2.14100111861626E-07  9.11839584723313E+00
 cg2d: Sum(rhs),rhsMax =   1.90180138304186E-06  9.11314741939364E+00
 cg2d: Sum(rhs),rhsMax =   6.98641144936119E-12  2.75881580315818E-02
 cg2d: Sum(rhs),rhsMax =  -2.14100069229062E-07  9.11839584711870E+00
 cg2d: Sum(rhs),rhsMax =   7.00661750840936E-12  2.74322691533636E-02
 cg2d: Sum(rhs),rhsMax =  -7.46576347410155E-08  9.50907671569018E+00
 cg2d: Sum(rhs),rhsMax =  -7.46636956705515E-08  9.50827538007810E+00
 cg2d: Sum(rhs),rhsMax =  -7.46696002806857E-08  9.50759038673436E+00
 cg2d: Sum(rhs),rhsMax =  -7.46738635371003E-08  9.50702164848735E+00
 cg2d: Sum(rhs),rhsMax =  -7.46774944104800E-08  9.50656668487862E+00
 cg2d: Sum(rhs),rhsMax =  -7.46800878914655E-08  9.50622069715104E+00
 cg2d: Sum(rhs),rhsMax =  -7.46821626762539E-08  9.50597670066013E+00
 cg2d: Sum(rhs),rhsMax =  -7.46832924392038E-08  9.50582571630982E+00
 cg2d: Sum(rhs),rhsMax =  -7.46840456145037E-08  9.50575700943737E+00
 cg2d: Sum(rhs),rhsMax =  -7.46835624454434E-08  9.50575837107225E+00
 cg2d: Sum(rhs),rhsMax =  -7.46833208609132E-08  9.50581645922263E+00
 cg2d: Sum(rhs),rhsMax =  -7.46821982033907E-08  9.50591711991761E+00
 cg2d: Sum(rhs),rhsMax =  -7.46813526575352E-08  9.50604571310823E+00
 cg2d: Sum(rhs),rhsMax =  -7.46798960449269E-08  9.50618745972881E+00
 cg2d: Sum(rhs),rhsMax =  -7.46791073424902E-08  9.50632780119137E+00
 cg2d: Sum(rhs),rhsMax =  -7.46779846849677E-08  9.50645275158785E+00
 cg2d: Sum(rhs),rhsMax =  -7.46776720461639E-08  9.50654922994562E+00
 cg2d: Sum(rhs),rhsMax =  -7.46771249282574E-08  9.50660536798306E+00
 cg2d: Sum(rhs),rhsMax =  -7.46771320336848E-08  9.50661078108177E+00
 cg2d: Sum(rhs),rhsMax =  -7.46778141547111E-08  9.50655679154863E+00
 cg2d: Sum(rhs),rhsMax =  -7.46784394323186E-08  9.50643658250018E+00
 cg2d: Sum(rhs),rhsMax =  -7.46802726325768E-08  9.50624530490270E+00
 cg2d: Sum(rhs),rhsMax =  -7.46821271491172E-08  9.50598009866199E+00
 cg2d: Sum(rhs),rhsMax =  -7.46850545851885E-08  9.50564005870858E+00
 cg2d: Sum(rhs),rhsMax =  -7.46883372926277E-08  9.50522619443621E+00
 cg2d: Sum(rhs),rhsMax =  -7.46918829008791E-08  9.50474133855045E+00
 cg2d: Sum(rhs),rhsMax =  -7.46962030007126E-08  9.50418990415982E+00
 cg2d: Sum(rhs),rhsMax =  -7.47013260138374E-08  9.50357767429962E+00
 cg2d: Sum(rhs),rhsMax =  -7.47062216532868E-08  9.50291163791579E+00
 cg2d: Sum(rhs),rhsMax =  -7.47126236433360E-08  9.50219980056318E+00
 cg2d: Sum(rhs),rhsMax =  -7.47184074612051E-08  9.50145094748729E+00
 cg2d: Sum(rhs),rhsMax =  -7.47247455024080E-08  9.50067438045622E+00
 cg2d: Sum(rhs),rhsMax =  -7.47313322335685E-08  9.49987965703835E+00
 cg2d: Sum(rhs),rhsMax =  -7.47377768561819E-08  9.49907634096511E+00
 cg2d: Sum(rhs),rhsMax =  -7.47441433190943E-08  9.49827377465974E+00
 cg2d: Sum(rhs),rhsMax =  -7.47505310982888E-08  9.49748086980356E+00
 cg2d: Sum(rhs),rhsMax =  -7.47569046666285E-08  9.49670591827534E+00
 cg2d: Sum(rhs),rhsMax =  -7.47627666441986E-08  9.49595642566026E+00
 cg2d: Sum(rhs),rhsMax =  -7.47686570434780E-08  9.49523896197083E+00
 cg2d: Sum(rhs),rhsMax =  -7.47742205930990E-08  9.49455904201468E+00
 cg2d: Sum(rhs),rhsMax =  -7.47793578170786E-08  9.49392104808525E+00
 cg2d: Sum(rhs),rhsMax =  -7.47843102999468E-08  9.49332815058320E+00
 cg2d: Sum(rhs),rhsMax =  -7.47889217223019E-08  9.49278226320107E+00
 cg2d: Sum(rhs),rhsMax =  -7.47930855027334E-08  9.49228403703651E+00
 cg2d: Sum(rhs),rhsMax =  -7.47963611047453E-08  9.49183288684206E+00
 cg2d: Sum(rhs),rhsMax =  -7.48000417161165E-08  9.49142705076112E+00
 cg2d: Sum(rhs),rhsMax =  -7.48029052033417E-08  9.49106366991647E+00
 cg2d: Sum(rhs),rhsMax =  -7.48058113231309E-08  9.49073888097194E+00
 cg2d: Sum(rhs),rhsMax =  -7.48079642676203E-08  9.49044792286002E+00
 cg2d: Sum(rhs),rhsMax =  -7.48104369563407E-08  9.49018527463466E+00
 EXTERNAL_FIELDS_LOAD, it=   3600330 : Reading new data, i0,i1=    6    7 (prev=    5    9 )
 DIC_FIELDS_LOAD, it=   3600330 : Reading new data, i0,i1=    6    7 (prev=    5    6 )
 cg2d: Sum(rhs),rhsMax =  -7.48125685845480E-08  9.48994481428126E+00
 cg2d: Sum(rhs),rhsMax =  -7.48145367879260E-08  9.48970977028949E+00
 cg2d: Sum(rhs),rhsMax =  -7.48167536812616E-08  9.48946667050908E+00
 cg2d: Sum(rhs),rhsMax =  -7.48186579357935E-08  9.48920195983684E+00
 cg2d: Sum(rhs),rhsMax =  -7.48212727330611E-08  9.48890231838115E+00
 cg2d: Sum(rhs),rhsMax =  -7.48240864822947E-08  9.48855490239494E+00
 cg2d: Sum(rhs),rhsMax =  -7.48277528828112E-08  9.48814760448955E+00
 cg2d: Sum(rhs),rhsMax =  -7.48317106058494E-08  9.48766929469714E+00
 cg2d: Sum(rhs),rhsMax =  -7.48361301816658E-08  9.48711003726197E+00
 cg2d: Sum(rhs),rhsMax =  -7.48412745110727E-08  9.48646127184076E+00
 cg2d: Sum(rhs),rhsMax =  -7.48473496514634E-08  9.48571598443359E+00
 cg2d: Sum(rhs),rhsMax =  -7.48540713857437E-08  9.48486884714226E+00
 cg2d: Sum(rhs),rhsMax =  -7.48618091961362E-08  9.48391631089758E+00
 cg2d: Sum(rhs),rhsMax =  -7.48703143926832E-08  9.48285664384895E+00
 cg2d: Sum(rhs),rhsMax =  -7.48790469629057E-08  9.48168991622247E+00
 cg2d: Sum(rhs),rhsMax =  -7.48895487845402E-08  9.48041794354397E+00
 cg2d: Sum(rhs),rhsMax =  -7.49003561395511E-08  9.47904418707887E+00
 cg2d: Sum(rhs),rhsMax =  -7.49121227272553E-08  9.47757361133926E+00
 cg2d: Sum(rhs),rhsMax =  -7.49249196019264E-08  9.47601250495736E+00
 cg2d: Sum(rhs),rhsMax =  -7.49377875308710E-08  9.47436827146146E+00
 cg2d: Sum(rhs),rhsMax =  -7.49514157405429E-08  9.47264919973884E+00
 cg2d: Sum(rhs),rhsMax =  -7.49656123844034E-08  9.47086422427234E+00
 cg2d: Sum(rhs),rhsMax =  -7.49802140376232E-08  9.46902267691356E+00
 cg2d: Sum(rhs),rhsMax =  -7.49953059653308E-08  9.46713403481286E+00
 cg2d: Sum(rhs),rhsMax =  -7.50105257907308E-08  9.46520767024855E+00
 cg2d: Sum(rhs),rhsMax =  -7.50263424720288E-08  9.46325259778073E+00
 cg2d: Sum(rhs),rhsMax =  -7.50422373130277E-08  9.46127726524814E+00
 cg2d: Sum(rhs),rhsMax =  -7.50577768826588E-08  9.45928937477588E+00
 cg2d: Sum(rhs),rhsMax =  -7.50738990973332E-08  9.45729571583441E+00
 cg2d: Sum(rhs),rhsMax =  -7.50896163026482E-08  9.45530206338839E+00
 cg2d: Sum(rhs),rhsMax =  -7.51056461467670E-08  9.45331309804778E+00
 cg2d: Sum(rhs),rhsMax =  -7.51212709815263E-08  9.45133234916556E+00
 cg2d: Sum(rhs),rhsMax =  -7.51373789853460E-08  9.44936217148271E+00
 cg2d: Sum(rhs),rhsMax =  -7.51527906572846E-08  9.44740375781686E+00
 cg2d: Sum(rhs),rhsMax =  -7.51685931277279E-08  9.44545718748645E+00
 cg2d: Sum(rhs),rhsMax =  -7.51841966462052E-08  9.44352151007986E+00
 cg2d: Sum(rhs),rhsMax =  -7.51994591041694E-08  9.44159486329961E+00
 cg2d: Sum(rhs),rhsMax =  -7.52147784055524E-08  9.43967460290015E+00
 cg2d: Sum(rhs),rhsMax =  -7.52305737705683E-08  9.43775744343237E+00
 cg2d: Sum(rhs),rhsMax =  -7.52457793851136E-08  9.43583960877673E+00
 cg2d: Sum(rhs),rhsMax =  -7.52614752741465E-08  9.43391698185443E+00
 cg2d: Sum(rhs),rhsMax =  -7.52768585243757E-08  9.43198524752366E+00
 cg2d: Sum(rhs),rhsMax =  -7.52925899405454E-08  9.43004003060471E+00
 cg2d: Sum(rhs),rhsMax =  -7.53084705706897E-08  9.42807701983885E+00
 cg2d: Sum(rhs),rhsMax =  -7.53246993667744E-08  9.42609207475689E+00
 cg2d: Sum(rhs),rhsMax =  -7.53408997411498E-08  9.42408132282525E+00
 cg2d: Sum(rhs),rhsMax =  -7.53572138023628E-08  9.42204124662806E+00
 cg2d: Sum(rhs),rhsMax =  -7.53741673520381E-08  9.41996876781019E+00
 cg2d: Sum(rhs),rhsMax =  -7.53910782691491E-08  9.41786131641806E+00
 cg2d: Sum(rhs),rhsMax =  -7.54086713072866E-08  9.41571688244791E+00
 cg2d: Sum(rhs),rhsMax =  -7.54266125113645E-08  9.41353407021840E+00
 cg2d: Sum(rhs),rhsMax =  -7.54444755557415E-08  9.41131216516102E+00
 cg2d: Sum(rhs),rhsMax =  -7.54630704591364E-08  9.40905115996980E+00
 cg2d: Sum(rhs),rhsMax =  -7.54816795733859E-08  9.40675174533744E+00
 cg2d: Sum(rhs),rhsMax =  -7.55005373775930E-08  9.40441527809810E+00
 cg2d: Sum(rhs),rhsMax =  -7.55200275648349E-08  9.40204373790542E+00
 cg2d: Sum(rhs),rhsMax =  -7.55398446017352E-08  9.39963967991296E+00
 cg2d: Sum(rhs),rhsMax =  -7.55594129486781E-08  9.39720618276624E+00
 cg2d: Sum(rhs),rhsMax =  -7.55797202600661E-08  9.39474678273504E+00
 cg2d: Sum(rhs),rhsMax =  -7.56002052071381E-08  9.39226540565015E+00
 EXTERNAL_FIELDS_LOAD, it=   3600390 : Reading new data, i0,i1=    7    8 (prev=    6    7 )
 DIC_FIELDS_LOAD, it=   3600390 : Reading new data, i0,i1=    7    8 (prev=    6    7 )
 cg2d: Sum(rhs),rhsMax =  -7.56204627805346E-08  9.38976628030644E+00
 cg2d: Sum(rhs),rhsMax =  -7.56415232672225E-08  9.38724775533259E+00
 cg2d: Sum(rhs),rhsMax =  -7.56618732111747E-08  9.38470942901966E+00
 cg2d: Sum(rhs),rhsMax =  -7.56830758064098E-08  9.38215030318780E+00
 cg2d: Sum(rhs),rhsMax =  -7.57043636667731E-08  9.37956883924381E+00
 cg2d: Sum(rhs),rhsMax =  -7.57257581085469E-08  9.37696305631202E+00
 cg2d: Sum(rhs),rhsMax =  -7.57472449208763E-08  9.37433065622099E+00
 cg2d: Sum(rhs),rhsMax =  -7.57689306851717E-08  9.37166915330181E+00
 cg2d: Sum(rhs),rhsMax =  -7.57913838356217E-08  9.36897600473142E+00
 cg2d: Sum(rhs),rhsMax =  -7.58139293566273E-08  9.36624871729081E+00
 cg2d: Sum(rhs),rhsMax =  -7.58368727815650E-08  9.36348495363947E+00
 cg2d: Sum(rhs),rhsMax =  -7.58596883088103E-08  9.36068261643794E+00
 cg2d: Sum(rhs),rhsMax =  -7.58831930625092E-08  9.35783991548456E+00
 cg2d: Sum(rhs),rhsMax =  -7.59071596689864E-08  9.35495541522523E+00
 cg2d: Sum(rhs),rhsMax =  -7.59316307608060E-08  9.35202806312956E+00
 cg2d: Sum(rhs),rhsMax =  -7.59561444851897E-08  9.34905718311665E+00
 cg2d: Sum(rhs),rhsMax =  -7.59807505801291E-08  9.34604244734688E+00
 cg2d: Sum(rhs),rhsMax =  -7.60062519589155E-08  9.34298385173757E+00
 cg2d: Sum(rhs),rhsMax =  -7.60316041237274E-08  9.33988171405705E+00
 cg2d: Sum(rhs),rhsMax =  -7.60576810421298E-08  9.33673667089172E+00
 cg2d: Sum(rhs),rhsMax =  -7.60842198133105E-08  9.33354966433849E+00
 cg2d: Sum(rhs),rhsMax =  -7.61109362201751E-08  9.33032189428481E+00
 cg2d: Sum(rhs),rhsMax =  -7.61379794766981E-08  9.32705473610878E+00
 cg2d: Sum(rhs),rhsMax =  -7.61650014169390E-08  9.32374964223594E+00
 cg2d: Sum(rhs),rhsMax =  -7.61924070502573E-08  9.32040805771324E+00
 cg2d: Sum(rhs),rhsMax =  -7.62202390092170E-08  9.31703133797851E+00
 cg2d: Sum(rhs),rhsMax =  -7.62486536132201E-08  9.31362068532222E+00
 cg2d: Sum(rhs),rhsMax =  -7.62769758466675E-08  9.31017709807696E+00
 cg2d: Sum(rhs),rhsMax =  -7.63053833452432E-08  9.30670132260387E+00
 cg2d: Sum(rhs),rhsMax =  -7.63343095400160E-08  9.30319380786966E+00
 cg2d: Sum(rhs),rhsMax =  -7.63631078370963E-08  9.29965466644313E+00
 cg2d: Sum(rhs),rhsMax =  -7.63924603575106E-08  9.29608366095666E+00
 cg2d: Sum(rhs),rhsMax =  -7.64222036764295E-08  9.29248016366683E+00
 cg2d: Sum(rhs),rhsMax =  -7.64520393659041E-08  9.28884314276847E+00
 cg2d: Sum(rhs),rhsMax =  -7.64822445376012E-08  9.28517117681256E+00
 cg2d: Sum(rhs),rhsMax =  -7.65125633961361E-08  9.28146248933914E+00
 cg2d: Sum(rhs),rhsMax =  -7.65432446314662E-08  9.27771499430064E+00
 cg2d: Sum(rhs),rhsMax =  -7.65746861475236E-08  9.27392634829171E+00
 cg2d: Sum(rhs),rhsMax =  -7.66061276635810E-08  9.27009401586145E+00
 cg2d: Sum(rhs),rhsMax =  -7.66378391858780E-08  9.26621534803516E+00
 cg2d: Sum(rhs),rhsMax =  -7.66705383625776E-08  9.26228766593419E+00
 cg2d: Sum(rhs),rhsMax =  -7.67030741144481E-08  9.25830830078040E+00
 cg2d: Sum(rhs),rhsMax =  -7.67362919873449E-08  9.25427464244149E+00
 cg2d: Sum(rhs),rhsMax =  -7.67699646075926E-08  9.25018420208542E+00
 cg2d: Sum(rhs),rhsMax =  -7.68039853937807E-08  9.24603467114681E+00
 cg2d: Sum(rhs),rhsMax =  -7.68388872529613E-08  9.24182397900772E+00
 cg2d: Sum(rhs),rhsMax =  -7.68742154377833E-08  9.23755034859452E+00
 cg2d: Sum(rhs),rhsMax =  -7.69100552133750E-08  9.23321234366443E+00
 cg2d: Sum(rhs),rhsMax =  -7.69468400108053E-08  9.22880889968266E+00
 cg2d: Sum(rhs),rhsMax =  -7.69835182268253E-08  9.22433933197490E+00
 cg2d: Sum(rhs),rhsMax =  -7.70209354072904E-08  9.21980332836426E+00
 cg2d: Sum(rhs),rhsMax =  -7.70591341847648E-08  9.21520093492414E+00
 cg2d: Sum(rhs),rhsMax =  -7.70982282460864E-08  9.21053254057723E+00
 cg2d: Sum(rhs),rhsMax =  -7.71375923136475E-08  9.20579886154174E+00
 cg2d: Sum(rhs),rhsMax =  -7.71773187580038E-08  9.20100092277316E+00
 cg2d: Sum(rhs),rhsMax =  -7.72178623265063E-08  9.19614003508373E+00
 cg2d: Sum(rhs),rhsMax =  -7.72588606423597E-08  9.19121776376076E+00
 cg2d: Sum(rhs),rhsMax =  -7.73005126575299E-08  9.18623589368687E+00
 cg2d: Sum(rhs),rhsMax =  -7.73430812728293E-08  9.18119640414723E+00
 cg2d: Sum(rhs),rhsMax =  -7.73854154090259E-08  9.17610144209478E+00
 EXTERNAL_FIELDS_LOAD, it=   3600450 : Reading new data, i0,i1=    8    9 (prev=    7    8 )
 DIC_FIELDS_LOAD, it=   3600450 : Reading new data, i0,i1=    8    9 (prev=    7    8 )
 cg2d: Sum(rhs),rhsMax =   5.09709899176869E-07  9.17095314337963E+00
 cg2d: Sum(rhs),rhsMax =   5.09998614006690E-07  9.16576400820029E+00
 cg2d: Sum(rhs),rhsMax =   5.10289574151557E-07  9.16054222389158E+00
 cg2d: Sum(rhs),rhsMax =   5.10582417234673E-07  9.15529573858759E+00
 cg2d: Sum(rhs),rhsMax =   5.10876290604756E-07  9.15003191808398E+00
 cg2d: Sum(rhs),rhsMax =   5.11171485584327E-07  9.14475739438875E+00
 cg2d: Sum(rhs),rhsMax =   5.11466623720480E-07  9.13947796038221E+00
 cg2d: Sum(rhs),rhsMax =   5.11762365817958E-07  9.13419851165827E+00
 cg2d: Sum(rhs),rhsMax =   5.12058576873642E-07  9.12892303014389E+00
 cg2d: Sum(rhs),rhsMax =   5.12354468185094E-07  9.12365458199377E+00
 EXTERNAL_FIELDS_LOAD, it=   3600450 : Reading new data, i0,i1=    8    9 (prev=    7    9 )
 DIC_FIELDS_LOAD, it=   3600450 : Reading new data, i0,i1=    8    9 (prev=    7    8 )
 cg2d: Sum(rhs),rhsMax =   5.09709899176869E-07  9.17095314337963E+00
 cg2d: Sum(rhs),rhsMax =   5.09998614006690E-07  9.16576400820029E+00
 cg2d: Sum(rhs),rhsMax =   5.10289574151557E-07  9.16054222389158E+00
 cg2d: Sum(rhs),rhsMax =   5.10582417234673E-07  9.15529573858759E+00
 cg2d: Sum(rhs),rhsMax =   5.10876290604756E-07  9.15003191808398E+00
 cg2d: Sum(rhs),rhsMax =   5.11171485584327E-07  9.14475739438875E+00
 cg2d: Sum(rhs),rhsMax =   5.11466623720480E-07  9.13947796038221E+00
 cg2d: Sum(rhs),rhsMax =   5.11762365817958E-07  9.13419851165827E+00
 cg2d: Sum(rhs),rhsMax =   5.12058576873642E-07  9.12892303014389E+00
 cg2d: Sum(rhs),rhsMax =   1.73214543508493E-06  9.12365453404123E+00
 cg2d: Sum(rhs),rhsMax =   6.96642743491793E-12  2.82022637174914E-02
 EXTERNAL_FIELDS_LOAD, it=   3600450 : Reading new data, i0,i1=    8    9 (prev=    7    9 )
 DIC_FIELDS_LOAD, it=   3600450 : Reading new data, i0,i1=    8    9 (prev=    7    8 )
 cg2d: Sum(rhs),rhsMax =   5.09709899176869E-07  9.17095314337963E+00
 cg2d: Sum(rhs),rhsMax =   5.09998614006690E-07  9.16576400820029E+00
 cg2d: Sum(rhs),rhsMax =   5.10289574151557E-07  9.16054222389158E+00
 cg2d: Sum(rhs),rhsMax =   5.10582417234673E-07  9.15529573858759E+00
 cg2d: Sum(rhs),rhsMax =   5.10876290604756E-07  9.15003191808398E+00
 cg2d: Sum(rhs),rhsMax =   5.11171485584327E-07  9.14475739438875E+00
 cg2d: Sum(rhs),rhsMax =   5.11466623720480E-07  9.13947796038221E+00
 cg2d: Sum(rhs),rhsMax =   5.11762365817958E-07  9.13419851165827E+00
 cg2d: Sum(rhs),rhsMax =   1.28793304554620E-06  9.12892305438869E+00
 cg2d: Sum(rhs),rhsMax =   6.76603217897309E-12  2.91464064637176E-02
 EXTERNAL_FIELDS_LOAD, it=   3600450 : Reading new data, i0,i1=    8    9 (prev=    7    9 )
 DIC_FIELDS_LOAD, it=   3600450 : Reading new data, i0,i1=    8    9 (prev=    7    8 )
 cg2d: Sum(rhs),rhsMax =   5.09709899176869E-07  9.17095314337963E+00
 cg2d: Sum(rhs),rhsMax =   5.09998614006690E-07  9.16576400820029E+00
 cg2d: Sum(rhs),rhsMax =   5.10289574151557E-07  9.16054222389158E+00
 cg2d: Sum(rhs),rhsMax =   5.10582417234673E-07  9.15529573858759E+00
 cg2d: Sum(rhs),rhsMax =   5.10876290604756E-07  9.15003191808398E+00
 cg2d: Sum(rhs),rhsMax =   5.11171485584327E-07  9.14475739438875E+00
 cg2d: Sum(rhs),rhsMax =   5.11466623720480E-07  9.13947796038221E+00
 cg2d: Sum(rhs),rhsMax =  -3.98343331653450E-08  9.13419838560782E+00
 cg2d: Sum(rhs),rhsMax =   6.71129818385907E-12  2.96205200357937E-02
 EXTERNAL_FIELDS_LOAD, it=   3600450 : Reading new data, i0,i1=    8    9 (prev=    7    9 )
 DIC_FIELDS_LOAD, it=   3600450 : Reading new data, i0,i1=    8    9 (prev=    7    8 )
 cg2d: Sum(rhs),rhsMax =   5.09709899176869E-07  9.17095314337963E+00
 cg2d: Sum(rhs),rhsMax =   5.09998614006690E-07  9.16576400820029E+00
 cg2d: Sum(rhs),rhsMax =   5.10289574151557E-07  9.16054222389158E+00
 cg2d: Sum(rhs),rhsMax =   5.10582417234673E-07  9.15529573858759E+00
 cg2d: Sum(rhs),rhsMax =   5.10876290604756E-07  9.15003191808398E+00
 cg2d: Sum(rhs),rhsMax =   5.11171485584327E-07  9.14475739438875E+00
 cg2d: Sum(rhs),rhsMax =  -3.15860901878295E-07  9.13947760402177E+00
 cg2d: Sum(rhs),rhsMax =   6.71118716155661E-12  2.98311003599329E-02
 EXTERNAL_FIELDS_LOAD, it=   3600450 : Reading new data, i0,i1=    8    9 (prev=    7    9 )
 DIC_FIELDS_LOAD, it=   3600450 : Reading new data, i0,i1=    8    9 (prev=    7    8 )
 cg2d: Sum(rhs),rhsMax =   5.09709899176869E-07  9.17095314337963E+00
 cg2d: Sum(rhs),rhsMax =   5.09998614006690E-07  9.16576400820029E+00
 cg2d: Sum(rhs),rhsMax =   5.10289574151557E-07  9.16054222389158E+00
 cg2d: Sum(rhs),rhsMax =   5.10582417234673E-07  9.15529573858759E+00
 cg2d: Sum(rhs),rhsMax =   5.10876290604756E-07  9.15003191808398E+00
 cg2d: Sum(rhs),rhsMax =   1.11458731311131E-06  9.14475775759858E+00
 cg2d: Sum(rhs),rhsMax =   6.80544509634728E-12  2.99008658916435E-02
 EXTERNAL_FIELDS_LOAD, it=   3600450 : Reading new data, i0,i1=    8    9 (prev=    7    9 )
 DIC_FIELDS_LOAD, it=   3600450 : Reading new data, i0,i1=    8    9 (prev=    7    8 )
 cg2d: Sum(rhs),rhsMax =   5.09709899176869E-07  9.17095314337963E+00
 cg2d: Sum(rhs),rhsMax =   5.09998614006690E-07  9.16576400820029E+00
 cg2d: Sum(rhs),rhsMax =   5.10289574151557E-07  9.16054222389158E+00
 cg2d: Sum(rhs),rhsMax =   5.10582417234673E-07  9.15529573858759E+00
 cg2d: Sum(rhs),rhsMax =   2.52883054940867E-07  9.15003200997224E+00
 cg2d: Sum(rhs),rhsMax =   6.80999701074825E-12  2.97763188673006E-02
 EXTERNAL_FIELDS_LOAD, it=   3600450 : Reading new data, i0,i1=    8    9 (prev=    7    9 )
 DIC_FIELDS_LOAD, it=   3600450 : Reading new data, i0,i1=    8    9 (prev=    7    8 )
 cg2d: Sum(rhs),rhsMax =   5.09709899176869E-07  9.17095314337963E+00
 cg2d: Sum(rhs),rhsMax =   5.09998614006690E-07  9.16576400820029E+00
 cg2d: Sum(rhs),rhsMax =   5.10289574151557E-07  9.16054222389158E+00
 cg2d: Sum(rhs),rhsMax =  -1.46821378166351E-07  9.15529574408016E+00
 cg2d: Sum(rhs),rhsMax =   6.93234358806194E-12  2.96276819260420E-02
 EXTERNAL_FIELDS_LOAD, it=   3600450 : Reading new data, i0,i1=    8    9 (prev=    7    9 )
 DIC_FIELDS_LOAD, it=   3600450 : Reading new data, i0,i1=    8    9 (prev=    7    8 )
 cg2d: Sum(rhs),rhsMax =   5.09709899176869E-07  9.17095314337963E+00
 cg2d: Sum(rhs),rhsMax =   5.09998614006690E-07  9.16576400820029E+00
 cg2d: Sum(rhs),rhsMax =   6.55442676134044E-07  9.16054189564238E+00
 cg2d: Sum(rhs),rhsMax =   7.02560232213045E-12  2.94154829537968E-02
 EXTERNAL_FIELDS_LOAD, it=   3600450 : Reading new data, i0,i1=    8    9 (prev=    7    9 )
 DIC_FIELDS_LOAD, it=   3600450 : Reading new data, i0,i1=    8    9 (prev=    7    8 )
 cg2d: Sum(rhs),rhsMax =   5.09709899176869E-07  9.17095314337963E+00
 cg2d: Sum(rhs),rhsMax =  -5.37112114784577E-07  9.16576401645986E+00
 cg2d: Sum(rhs),rhsMax =   7.17570447505977E-12  2.90552243315269E-02
 EXTERNAL_FIELDS_LOAD, it=   3600450 : Reading new data, i0,i1=    8    9 (prev=    7    9 )
 DIC_FIELDS_LOAD, it=   3600450 : Reading new data, i0,i1=    8    9 (prev=    7    8 )
 cg2d: Sum(rhs),rhsMax =   5.09709842333450E-07  9.17095314343760E+00
 cg2d: Sum(rhs),rhsMax =   7.30859817110741E-12  2.85679878208317E-02
 cg2d: Sum(rhs),rhsMax =  -7.46576347410155E-08  9.50907671569018E+00
 cg2d: Sum(rhs),rhsMax =  -7.46636956705515E-08  9.50827538007810E+00
 cg2d: Sum(rhs),rhsMax =  -7.46696002806857E-08  9.50759038673436E+00
 cg2d: Sum(rhs),rhsMax =  -7.46738635371003E-08  9.50702164848735E+00
 cg2d: Sum(rhs),rhsMax =  -7.46774944104800E-08  9.50656668487862E+00
 cg2d: Sum(rhs),rhsMax =  -7.46800878914655E-08  9.50622069715104E+00
 cg2d: Sum(rhs),rhsMax =  -7.46821626762539E-08  9.50597670066013E+00
 cg2d: Sum(rhs),rhsMax =  -7.46832924392038E-08  9.50582571630982E+00
 cg2d: Sum(rhs),rhsMax =  -7.46840456145037E-08  9.50575700943737E+00
 cg2d: Sum(rhs),rhsMax =  -7.46835624454434E-08  9.50575837107225E+00
 cg2d: Sum(rhs),rhsMax =  -7.46833208609132E-08  9.50581645922263E+00
 cg2d: Sum(rhs),rhsMax =  -7.46821982033907E-08  9.50591711991761E+00
 cg2d: Sum(rhs),rhsMax =  -7.46813526575352E-08  9.50604571310823E+00
 cg2d: Sum(rhs),rhsMax =  -7.46798960449269E-08  9.50618745972881E+00
 cg2d: Sum(rhs),rhsMax =  -7.46791073424902E-08  9.50632780119137E+00
 cg2d: Sum(rhs),rhsMax =  -7.46779846849677E-08  9.50645275158785E+00
 cg2d: Sum(rhs),rhsMax =  -7.46776720461639E-08  9.50654922994562E+00
 cg2d: Sum(rhs),rhsMax =  -7.46771249282574E-08  9.50660536798306E+00
 cg2d: Sum(rhs),rhsMax =  -7.46771320336848E-08  9.50661078108177E+00
 cg2d: Sum(rhs),rhsMax =  -7.46778141547111E-08  9.50655679154863E+00
 cg2d: Sum(rhs),rhsMax =  -7.46784394323186E-08  9.50643658250018E+00
 cg2d: Sum(rhs),rhsMax =  -7.46802726325768E-08  9.50624530490270E+00
 cg2d: Sum(rhs),rhsMax =  -7.46821271491172E-08  9.50598009866199E+00
 cg2d: Sum(rhs),rhsMax =  -7.46850545851885E-08  9.50564005870858E+00
 cg2d: Sum(rhs),rhsMax =  -7.46883372926277E-08  9.50522619443621E+00
 cg2d: Sum(rhs),rhsMax =  -7.46918829008791E-08  9.50474133855045E+00
 cg2d: Sum(rhs),rhsMax =  -7.46962030007126E-08  9.50418990415982E+00
 cg2d: Sum(rhs),rhsMax =  -7.47013260138374E-08  9.50357767429962E+00
 cg2d: Sum(rhs),rhsMax =  -7.47062216532868E-08  9.50291163791579E+00
 cg2d: Sum(rhs),rhsMax =  -7.47126236433360E-08  9.50219980056318E+00
 cg2d: Sum(rhs),rhsMax =  -7.47184074612051E-08  9.50145094748729E+00
 cg2d: Sum(rhs),rhsMax =  -7.47247455024080E-08  9.50067438045622E+00
 cg2d: Sum(rhs),rhsMax =  -7.47313322335685E-08  9.49987965703835E+00
 cg2d: Sum(rhs),rhsMax =  -7.47377768561819E-08  9.49907634096511E+00
 cg2d: Sum(rhs),rhsMax =  -7.47441433190943E-08  9.49827377465974E+00
 cg2d: Sum(rhs),rhsMax =  -7.47505310982888E-08  9.49748086980356E+00
 cg2d: Sum(rhs),rhsMax =  -7.47569046666285E-08  9.49670591827534E+00
 cg2d: Sum(rhs),rhsMax =  -7.47627666441986E-08  9.49595642566026E+00
 cg2d: Sum(rhs),rhsMax =  -7.47686570434780E-08  9.49523896197083E+00
 cg2d: Sum(rhs),rhsMax =  -7.47742205930990E-08  9.49455904201468E+00
 cg2d: Sum(rhs),rhsMax =  -7.47793578170786E-08  9.49392104808525E+00
 cg2d: Sum(rhs),rhsMax =  -7.47843102999468E-08  9.49332815058320E+00
 cg2d: Sum(rhs),rhsMax =  -7.47889217223019E-08  9.49278226320107E+00
 cg2d: Sum(rhs),rhsMax =  -7.47930855027334E-08  9.49228403703651E+00
 cg2d: Sum(rhs),rhsMax =  -7.47963611047453E-08  9.49183288684206E+00
 cg2d: Sum(rhs),rhsMax =  -7.48000417161165E-08  9.49142705076112E+00
 cg2d: Sum(rhs),rhsMax =  -7.48029052033417E-08  9.49106366991647E+00
 cg2d: Sum(rhs),rhsMax =  -7.48058113231309E-08  9.49073888097194E+00
 cg2d: Sum(rhs),rhsMax =  -7.48079642676203E-08  9.49044792286002E+00
 cg2d: Sum(rhs),rhsMax =  -7.48104369563407E-08  9.49018527463466E+00
 EXTERNAL_FIELDS_LOAD, it=   3600330 : Reading new data, i0,i1=    6    7 (prev=    5    9 )
 DIC_FIELDS_LOAD, it=   3600330 : Reading new data, i0,i1=    6    7 (prev=    5    6 )
 cg2d: Sum(rhs),rhsMax =  -7.48125685845480E-08  9.48994481428126E+00
 cg2d: Sum(rhs),rhsMax =  -7.48145367879260E-08  9.48970977028949E+00
 cg2d: Sum(rhs),rhsMax =  -7.48167536812616E-08  9.48946667050908E+00
 cg2d: Sum(rhs),rhsMax =  -7.48186579357935E-08  9.48920195983684E+00
 cg2d: Sum(rhs),rhsMax =  -7.48212727330611E-08  9.48890231838115E+00
 cg2d: Sum(rhs),rhsMax =  -7.48240864822947E-08  9.48855490239494E+00
 cg2d: Sum(rhs),rhsMax =  -7.48277528828112E-08  9.48814760448955E+00
 cg2d: Sum(rhs),rhsMax =  -7.48317106058494E-08  9.48766929469714E+00
 cg2d: Sum(rhs),rhsMax =  -7.48361301816658E-08  9.48711003726197E+00
 cg2d: Sum(rhs),rhsMax =  -7.48412745110727E-08  9.48646127184076E+00
 cg2d: Sum(rhs),rhsMax =  -7.48473496514634E-08  9.48571598443359E+00
 cg2d: Sum(rhs),rhsMax =  -7.48540713857437E-08  9.48486884714226E+00
 cg2d: Sum(rhs),rhsMax =  -7.48618091961362E-08  9.48391631089758E+00
 cg2d: Sum(rhs),rhsMax =  -7.48703143926832E-08  9.48285664384895E+00
 cg2d: Sum(rhs),rhsMax =  -7.48790469629057E-08  9.48168991622247E+00
 cg2d: Sum(rhs),rhsMax =  -7.48895487845402E-08  9.48041794354397E+00
 cg2d: Sum(rhs),rhsMax =  -7.49003561395511E-08  9.47904418707887E+00
 cg2d: Sum(rhs),rhsMax =  -7.49121227272553E-08  9.47757361133926E+00
 cg2d: Sum(rhs),rhsMax =  -7.49249196019264E-08  9.47601250495736E+00
 cg2d: Sum(rhs),rhsMax =  -7.49377875308710E-08  9.47436827146146E+00
 cg2d: Sum(rhs),rhsMax =  -7.49514157405429E-08  9.47264919973884E+00
 cg2d: Sum(rhs),rhsMax =  -7.49656123844034E-08  9.47086422427234E+00
 cg2d: Sum(rhs),rhsMax =  -7.49802140376232E-08  9.46902267691356E+00
 cg2d: Sum(rhs),rhsMax =  -7.49953059653308E-08  9.46713403481286E+00
 cg2d: Sum(rhs),rhsMax =  -7.50105257907308E-08  9.46520767024855E+00
 cg2d: Sum(rhs),rhsMax =  -7.50263424720288E-08  9.46325259778073E+00
 cg2d: Sum(rhs),rhsMax =  -7.50422373130277E-08  9.46127726524814E+00
 cg2d: Sum(rhs),rhsMax =  -7.50577768826588E-08  9.45928937477588E+00
 cg2d: Sum(rhs),rhsMax =  -7.50738990973332E-08  9.45729571583441E+00
 cg2d: Sum(rhs),rhsMax =  -7.50896163026482E-08  9.45530206338839E+00
 cg2d: Sum(rhs),rhsMax =  -7.51056461467670E-08  9.45331309804778E+00
 cg2d: Sum(rhs),rhsMax =  -7.51212709815263E-08  9.45133234916556E+00
 cg2d: Sum(rhs),rhsMax =  -7.51373789853460E-08  9.44936217148271E+00
 cg2d: Sum(rhs),rhsMax =  -7.51527906572846E-08  9.44740375781686E+00
 cg2d: Sum(rhs),rhsMax =  -7.51685931277279E-08  9.44545718748645E+00
 cg2d: Sum(rhs),rhsMax =  -7.51841966462052E-08  9.44352151007986E+00
 cg2d: Sum(rhs),rhsMax =  -7.51994591041694E-08  9.44159486329961E+00
 cg2d: Sum(rhs),rhsMax =  -7.52147784055524E-08  9.43967460290015E+00
 cg2d: Sum(rhs),rhsMax =  -7.52305737705683E-08  9.43775744343237E+00
 cg2d: Sum(rhs),rhsMax =  -7.52457793851136E-08  9.43583960877673E+00
 cg2d: Sum(rhs),rhsMax =  -7.52614752741465E-08  9.43391698185443E+00
 cg2d: Sum(rhs),rhsMax =  -7.52768585243757E-08  9.43198524752366E+00
 cg2d: Sum(rhs),rhsMax =  -7.52925899405454E-08  9.43004003060471E+00
 cg2d: Sum(rhs),rhsMax =  -7.53084705706897E-08  9.42807701983885E+00
 cg2d: Sum(rhs),rhsMax =  -7.53246993667744E-08  9.42609207475689E+00
 cg2d: Sum(rhs),rhsMax =  -7.53408997411498E-08  9.42408132282525E+00
 cg2d: Sum(rhs),rhsMax =  -7.53572138023628E-08  9.42204124662806E+00
 cg2d: Sum(rhs),rhsMax =  -7.53741673520381E-08  9.41996876781019E+00
 cg2d: Sum(rhs),rhsMax =  -7.53910782691491E-08  9.41786131641806E+00
 cg2d: Sum(rhs),rhsMax =  -7.54086713072866E-08  9.41571688244791E+00
 cg2d: Sum(rhs),rhsMax =  -7.54266125113645E-08  9.41353407021840E+00
 cg2d: Sum(rhs),rhsMax =  -7.54444755557415E-08  9.41131216516102E+00
 cg2d: Sum(rhs),rhsMax =  -7.54630704591364E-08  9.40905115996980E+00
 cg2d: Sum(rhs),rhsMax =  -7.54816795733859E-08  9.40675174533744E+00
 cg2d: Sum(rhs),rhsMax =  -7.55005373775930E-08  9.40441527809810E+00
 cg2d: Sum(rhs),rhsMax =  -7.55200275648349E-08  9.40204373790542E+00
 cg2d: Sum(rhs),rhsMax =  -7.55398446017352E-08  9.39963967991296E+00
 cg2d: Sum(rhs),rhsMax =  -7.55594129486781E-08  9.39720618276624E+00
 cg2d: Sum(rhs),rhsMax =  -7.55797202600661E-08  9.39474678273504E+00
 cg2d: Sum(rhs),rhsMax =  -7.56002052071381E-08  9.39226540565015E+00
 EXTERNAL_FIELDS_LOAD, it=   3600390 : Reading new data, i0,i1=    7    8 (prev=    6    7 )
 DIC_FIELDS_LOAD, it=   3600390 : Reading new data, i0,i1=    7    8 (prev=    6    7 )
 cg2d: Sum(rhs),rhsMax =  -7.56204627805346E-08  9.38976628030644E+00
 cg2d: Sum(rhs),rhsMax =  -7.56415232672225E-08  9.38724775533259E+00
 cg2d: Sum(rhs),rhsMax =  -7.56618732111747E-08  9.38470942901966E+00
 cg2d: Sum(rhs),rhsMax =  -7.56830758064098E-08  9.38215030318780E+00
 cg2d: Sum(rhs),rhsMax =  -7.57043636667731E-08  9.37956883924381E+00
 cg2d: Sum(rhs),rhsMax =  -7.57257581085469E-08  9.37696305631202E+00
 cg2d: Sum(rhs),rhsMax =  -7.57472449208763E-08  9.37433065622099E+00
 cg2d: Sum(rhs),rhsMax =  -7.57689306851717E-08  9.37166915330181E+00
 cg2d: Sum(rhs),rhsMax =  -7.57913838356217E-08  9.36897600473142E+00
 cg2d: Sum(rhs),rhsMax =  -7.58139293566273E-08  9.36624871729081E+00
 cg2d: Sum(rhs),rhsMax =  -7.58368727815650E-08  9.36348495363947E+00
 cg2d: Sum(rhs),rhsMax =  -7.58596883088103E-08  9.36068261643794E+00
 cg2d: Sum(rhs),rhsMax =  -7.58831930625092E-08  9.35783991548456E+00
 cg2d: Sum(rhs),rhsMax =  -7.59071596689864E-08  9.35495541522523E+00
 cg2d: Sum(rhs),rhsMax =  -7.59316307608060E-08  9.35202806312956E+00
 cg2d: Sum(rhs),rhsMax =  -7.59561444851897E-08  9.34905718311665E+00
 cg2d: Sum(rhs),rhsMax =  -7.59807505801291E-08  9.34604244734688E+00
 cg2d: Sum(rhs),rhsMax =  -7.60062519589155E-08  9.34298385173757E+00
 cg2d: Sum(rhs),rhsMax =  -7.60316041237274E-08  9.33988171405705E+00
 cg2d: Sum(rhs),rhsMax =  -7.60576810421298E-08  9.33673667089172E+00
 cg2d: Sum(rhs),rhsMax =  -7.60842198133105E-08  9.33354966433849E+00
 cg2d: Sum(rhs),rhsMax =  -7.61109362201751E-08  9.33032189428481E+00
 cg2d: Sum(rhs),rhsMax =  -7.61379794766981E-08  9.32705473610878E+00
 cg2d: Sum(rhs),rhsMax =  -7.61650014169390E-08  9.32374964223594E+00
 cg2d: Sum(rhs),rhsMax =  -7.61924070502573E-08  9.32040805771324E+00
 cg2d: Sum(rhs),rhsMax =  -7.62202390092170E-08  9.31703133797851E+00
 cg2d: Sum(rhs),rhsMax =  -7.62486536132201E-08  9.31362068532222E+00
 cg2d: Sum(rhs),rhsMax =  -7.62769758466675E-08  9.31017709807696E+00
 cg2d: Sum(rhs),rhsMax =  -7.63053833452432E-08  9.30670132260387E+00
 cg2d: Sum(rhs),rhsMax =  -7.63343095400160E-08  9.30319380786966E+00
 cg2d: Sum(rhs),rhsMax =  -7.63631078370963E-08  9.29965466644313E+00
 cg2d: Sum(rhs),rhsMax =  -7.63924603575106E-08  9.29608366095666E+00
 cg2d: Sum(rhs),rhsMax =  -7.64222036764295E-08  9.29248016366683E+00
 cg2d: Sum(rhs),rhsMax =  -7.64520393659041E-08  9.28884314276847E+00
 cg2d: Sum(rhs),rhsMax =  -7.64822445376012E-08  9.28517117681256E+00
 cg2d: Sum(rhs),rhsMax =  -7.65125633961361E-08  9.28146248933914E+00
 cg2d: Sum(rhs),rhsMax =  -7.65432446314662E-08  9.27771499430064E+00
 cg2d: Sum(rhs),rhsMax =  -7.65746861475236E-08  9.27392634829171E+00
 cg2d: Sum(rhs),rhsMax =  -7.66061276635810E-08  9.27009401586145E+00
 cg2d: Sum(rhs),rhsMax =  -7.66378391858780E-08  9.26621534803516E+00
 cg2d: Sum(rhs),rhsMax =  -7.66705383625776E-08  9.26228766593419E+00
 cg2d: Sum(rhs),rhsMax =  -7.67030741144481E-08  9.25830830078040E+00
 cg2d: Sum(rhs),rhsMax =  -7.67362919873449E-08  9.25427464244149E+00
 cg2d: Sum(rhs),rhsMax =  -7.67699646075926E-08  9.25018420208542E+00
 cg2d: Sum(rhs),rhsMax =  -7.68039853937807E-08  9.24603467114681E+00
 cg2d: Sum(rhs),rhsMax =  -7.68388872529613E-08  9.24182397900772E+00
 cg2d: Sum(rhs),rhsMax =  -7.68742154377833E-08  9.23755034859452E+00
 cg2d: Sum(rhs),rhsMax =  -7.69100552133750E-08  9.23321234366443E+00
 cg2d: Sum(rhs),rhsMax =  -7.69468400108053E-08  9.22880889968266E+00
 cg2d: Sum(rhs),rhsMax =  -7.69835182268253E-08  9.22433933197490E+00
 cg2d: Sum(rhs),rhsMax =  -1.02866898998855E-07  9.21980342931316E+00
 cg2d: Sum(rhs),rhsMax =  -1.02918214395231E-07  9.21520105461593E+00
 cg2d: Sum(rhs),rhsMax =  -1.02969487159044E-07  9.21053269769100E+00
 cg2d: Sum(rhs),rhsMax =  -1.03022493647131E-07  9.20579907210508E+00
 cg2d: Sum(rhs),rhsMax =  -1.03075777246886E-07  9.20100120207508E+00
 cg2d: Sum(rhs),rhsMax =  -1.03129877970787E-07  9.19614039985704E+00
 cg2d: Sum(rhs),rhsMax =  -1.03185023192509E-07  9.19121823114923E+00
 cg2d: Sum(rhs),rhsMax =  -1.03240680005001E-07  9.18623647812895E+00
 cg2d: Sum(rhs),rhsMax =  -1.03297104203648E-07  9.18119711484154E+00
 cg2d: Sum(rhs),rhsMax =  -1.03354032887637E-07  9.17610228241348E+00
 cg2d: Sum(rhs),rhsMax =  -1.02866898998855E-07  9.21980342931316E+00
 cg2d: Sum(rhs),rhsMax =  -1.02918214395231E-07  9.21520105461593E+00
 cg2d: Sum(rhs),rhsMax =  -1.02969487159044E-07  9.21053269769100E+00
 cg2d: Sum(rhs),rhsMax =  -1.03022493647131E-07  9.20579907210508E+00
 cg2d: Sum(rhs),rhsMax =  -1.03075777246886E-07  9.20100120207508E+00
 cg2d: Sum(rhs),rhsMax =  -1.03129877970787E-07  9.19614039985704E+00
 cg2d: Sum(rhs),rhsMax =  -1.03185023192509E-07  9.19121823114923E+00
 cg2d: Sum(rhs),rhsMax =  -1.03240680005001E-07  9.18623647812895E+00
 cg2d: Sum(rhs),rhsMax =  -1.03297104203648E-07  9.18119711484154E+00
 cg2d: Sum(rhs),rhsMax =  -1.39073677019041E-07  9.17610239082251E+00
 cg2d: Sum(rhs),rhsMax =   7.56794626965984E-12  2.79296736654429E-02
 cg2d: Sum(rhs),rhsMax =  -1.02866898998855E-07  9.21980342931316E+00
 cg2d: Sum(rhs),rhsMax =  -1.02918214395231E-07  9.21520105461593E+00
 cg2d: Sum(rhs),rhsMax =  -1.02969487159044E-07  9.21053269769100E+00
 cg2d: Sum(rhs),rhsMax =  -1.03022493647131E-07  9.20579907210508E+00
 cg2d: Sum(rhs),rhsMax =  -1.03075777246886E-07  9.20100120207508E+00
 cg2d: Sum(rhs),rhsMax =  -1.03129877970787E-07  9.19614039985704E+00
 cg2d: Sum(rhs),rhsMax =  -1.03185023192509E-07  9.19121823114923E+00
 cg2d: Sum(rhs),rhsMax =  -1.03240680005001E-07  9.18623647812895E+00
 cg2d: Sum(rhs),rhsMax =   3.41526487090960E-08  9.18119693158216E+00
 cg2d: Sum(rhs),rhsMax =   7.84849962798262E-12  2.71770980728738E-02
 cg2d: Sum(rhs),rhsMax =  -1.02866898998855E-07  9.21980342931316E+00
 cg2d: Sum(rhs),rhsMax =  -1.02918214395231E-07  9.21520105461593E+00
 cg2d: Sum(rhs),rhsMax =  -1.02969487159044E-07  9.21053269769100E+00
 cg2d: Sum(rhs),rhsMax =  -1.03022493647131E-07  9.20579907210508E+00
 cg2d: Sum(rhs),rhsMax =  -1.03075777246886E-07  9.20100120207508E+00
 cg2d: Sum(rhs),rhsMax =  -1.03129877970787E-07  9.19614039985704E+00
 cg2d: Sum(rhs),rhsMax =  -1.03185023192509E-07  9.19121823114923E+00
 cg2d: Sum(rhs),rhsMax =   1.67000994366617E-06  9.18623672386849E+00
 cg2d: Sum(rhs),rhsMax =   8.12150346973795E-12  2.65843062119072E-02
 cg2d: Sum(rhs),rhsMax =  -1.02866898998855E-07  9.21980342931316E+00
 cg2d: Sum(rhs),rhsMax =  -1.02918214395231E-07  9.21520105461593E+00
 cg2d: Sum(rhs),rhsMax =  -1.02969487159044E-07  9.21053269769100E+00
 cg2d: Sum(rhs),rhsMax =  -1.03022493647131E-07  9.20579907210508E+00
 cg2d: Sum(rhs),rhsMax =  -1.03075777246886E-07  9.20100120207508E+00
 cg2d: Sum(rhs),rhsMax =  -1.03129877970787E-07  9.19614039985704E+00
 cg2d: Sum(rhs),rhsMax =   1.75093686038963E-06  9.19121852540287E+00
 cg2d: Sum(rhs),rhsMax =   8.21664958294832E-12  2.62956717198179E-02
 cg2d: Sum(rhs),rhsMax =  -1.02866898998855E-07  9.21980342931316E+00
 cg2d: Sum(rhs),rhsMax =  -1.02918214395231E-07  9.21520105461593E+00
 cg2d: Sum(rhs),rhsMax =  -1.02969487159044E-07  9.21053269769100E+00
 cg2d: Sum(rhs),rhsMax =  -1.03022493647131E-07  9.20579907210508E+00
 cg2d: Sum(rhs),rhsMax =  -1.03075777246886E-07  9.20100120207508E+00
 cg2d: Sum(rhs),rhsMax =   4.01698443397436E-08  9.19614059228984E+00
 cg2d: Sum(rhs),rhsMax =   7.82995890347138E-12  2.78537320082335E-02
 cg2d: Sum(rhs),rhsMax =  -1.02866898998855E-07  9.21980342931316E+00
 cg2d: Sum(rhs),rhsMax =  -1.02918214395231E-07  9.21520105461593E+00
 cg2d: Sum(rhs),rhsMax =  -1.02969487159044E-07  9.21053269769100E+00
 cg2d: Sum(rhs),rhsMax =  -1.03022493647131E-07  9.20579907210508E+00
 cg2d: Sum(rhs),rhsMax =   1.71803854698283E-07  9.20100114929572E+00
 cg2d: Sum(rhs),rhsMax =   7.25142168533921E-12  3.03445671869406E-02
 cg2d: Sum(rhs),rhsMax =  -1.02866898998855E-07  9.21980342931316E+00
 cg2d: Sum(rhs),rhsMax =  -1.02918214395231E-07  9.21520105461593E+00
 cg2d: Sum(rhs),rhsMax =  -1.02969487159044E-07  9.21053269769100E+00
 cg2d: Sum(rhs),rhsMax =   1.04696973579621E-06  9.20579916804128E+00
 cg2d: Sum(rhs),rhsMax =   7.19468928878086E-12  3.10265379864939E-02
 cg2d: Sum(rhs),rhsMax =  -1.02866898998855E-07  9.21980342931316E+00
 cg2d: Sum(rhs),rhsMax =  -1.02918214395231E-07  9.21520105461593E+00
 cg2d: Sum(rhs),rhsMax =  -5.41203725390460E-07  9.21053281924206E+00
 cg2d: Sum(rhs),rhsMax =   7.27640170339328E-12  3.06670432633738E-02
 cg2d: Sum(rhs),rhsMax =  -1.02866898998855E-07  9.21980342931316E+00
 cg2d: Sum(rhs),rhsMax =   3.41424104988164E-07  9.21520101885407E+00
 cg2d: Sum(rhs),rhsMax =   7.48578976583758E-12  3.01826756221465E-02
 cg2d: Sum(rhs),rhsMax =  -1.02866657414324E-07  9.21980342974087E+00
 cg2d: Sum(rhs),rhsMax =   7.41806616133545E-12  3.05870116108830E-02
 cg2d: Sum(rhs),rhsMax =  -7.46576347410155E-08  9.50907671569018E+00
 cg2d: Sum(rhs),rhsMax =  -7.46636956705515E-08  9.50827538007810E+00
 cg2d: Sum(rhs),rhsMax =  -7.46696002806857E-08  9.50759038673436E+00
 cg2d: Sum(rhs),rhsMax =  -7.46738635371003E-08  9.50702164848735E+00
 cg2d: Sum(rhs),rhsMax =  -7.46774944104800E-08  9.50656668487862E+00
 cg2d: Sum(rhs),rhsMax =  -7.46800878914655E-08  9.50622069715104E+00
 cg2d: Sum(rhs),rhsMax =  -7.46821626762539E-08  9.50597670066013E+00
 cg2d: Sum(rhs),rhsMax =  -7.46832924392038E-08  9.50582571630982E+00
 cg2d: Sum(rhs),rhsMax =  -7.46840456145037E-08  9.50575700943737E+00
 cg2d: Sum(rhs),rhsMax =  -7.46835624454434E-08  9.50575837107225E+00
 cg2d: Sum(rhs),rhsMax =  -7.46833208609132E-08  9.50581645922263E+00
 cg2d: Sum(rhs),rhsMax =  -7.46821982033907E-08  9.50591711991761E+00
 cg2d: Sum(rhs),rhsMax =  -7.46813526575352E-08  9.50604571310823E+00
 cg2d: Sum(rhs),rhsMax =  -7.46798960449269E-08  9.50618745972881E+00
 cg2d: Sum(rhs),rhsMax =  -7.46791073424902E-08  9.50632780119137E+00
 cg2d: Sum(rhs),rhsMax =  -7.46779846849677E-08  9.50645275158785E+00
 cg2d: Sum(rhs),rhsMax =  -7.46776720461639E-08  9.50654922994562E+00
 cg2d: Sum(rhs),rhsMax =  -7.46771249282574E-08  9.50660536798306E+00
 cg2d: Sum(rhs),rhsMax =  -7.46771320336848E-08  9.50661078108177E+00
 cg2d: Sum(rhs),rhsMax =  -7.46778141547111E-08  9.50655679154863E+00
 cg2d: Sum(rhs),rhsMax =  -7.46784394323186E-08  9.50643658250018E+00
 cg2d: Sum(rhs),rhsMax =  -7.46802726325768E-08  9.50624530490270E+00
 cg2d: Sum(rhs),rhsMax =  -7.46821271491172E-08  9.50598009866199E+00
 cg2d: Sum(rhs),rhsMax =  -7.46850545851885E-08  9.50564005870858E+00
 cg2d: Sum(rhs),rhsMax =  -7.46883372926277E-08  9.50522619443621E+00
 cg2d: Sum(rhs),rhsMax =  -7.46918829008791E-08  9.50474133855045E+00
 cg2d: Sum(rhs),rhsMax =  -7.46962030007126E-08  9.50418990415982E+00
 cg2d: Sum(rhs),rhsMax =  -7.47013260138374E-08  9.50357767429962E+00
 cg2d: Sum(rhs),rhsMax =  -7.47062216532868E-08  9.50291163791579E+00
 cg2d: Sum(rhs),rhsMax =  -7.47126236433360E-08  9.50219980056318E+00
 cg2d: Sum(rhs),rhsMax =  -7.47184074612051E-08  9.50145094748729E+00
 cg2d: Sum(rhs),rhsMax =  -7.47247455024080E-08  9.50067438045622E+00
 cg2d: Sum(rhs),rhsMax =  -7.47313322335685E-08  9.49987965703835E+00
 cg2d: Sum(rhs),rhsMax =  -7.47377768561819E-08  9.49907634096511E+00
 cg2d: Sum(rhs),rhsMax =  -7.47441433190943E-08  9.49827377465974E+00
 cg2d: Sum(rhs),rhsMax =  -7.47505310982888E-08  9.49748086980356E+00
 cg2d: Sum(rhs),rhsMax =  -7.47569046666285E-08  9.49670591827534E+00
 cg2d: Sum(rhs),rhsMax =  -7.47627666441986E-08  9.49595642566026E+00
 cg2d: Sum(rhs),rhsMax =  -7.47686570434780E-08  9.49523896197083E+00
 cg2d: Sum(rhs),rhsMax =  -7.47742205930990E-08  9.49455904201468E+00
 cg2d: Sum(rhs),rhsMax =  -7.47793578170786E-08  9.49392104808525E+00
 cg2d: Sum(rhs),rhsMax =  -7.47843102999468E-08  9.49332815058320E+00
 cg2d: Sum(rhs),rhsMax =  -7.47889217223019E-08  9.49278226320107E+00
 cg2d: Sum(rhs),rhsMax =  -7.47930855027334E-08  9.49228403703651E+00
 cg2d: Sum(rhs),rhsMax =  -7.47963611047453E-08  9.49183288684206E+00
 cg2d: Sum(rhs),rhsMax =  -7.48000417161165E-08  9.49142705076112E+00
 cg2d: Sum(rhs),rhsMax =  -7.48029052033417E-08  9.49106366991647E+00
 cg2d: Sum(rhs),rhsMax =  -7.48058113231309E-08  9.49073888097194E+00
 cg2d: Sum(rhs),rhsMax =  -7.48079642676203E-08  9.49044792286002E+00
 cg2d: Sum(rhs),rhsMax =  -7.48104369563407E-08  9.49018527463466E+00
 EXTERNAL_FIELDS_LOAD, it=   3600330 : Reading new data, i0,i1=    6    7 (prev=    5    8 )
 DIC_FIELDS_LOAD, it=   3600330 : Reading new data, i0,i1=    6    7 (prev=    5    6 )
 cg2d: Sum(rhs),rhsMax =  -7.48125685845480E-08  9.48994481428126E+00
 cg2d: Sum(rhs),rhsMax =  -7.48145367879260E-08  9.48970977028949E+00
 cg2d: Sum(rhs),rhsMax =  -7.48167536812616E-08  9.48946667050908E+00
 cg2d: Sum(rhs),rhsMax =  -7.48186579357935E-08  9.48920195983684E+00
 cg2d: Sum(rhs),rhsMax =  -7.48212727330611E-08  9.48890231838115E+00
 cg2d: Sum(rhs),rhsMax =  -7.48240864822947E-08  9.48855490239494E+00
 cg2d: Sum(rhs),rhsMax =  -7.48277528828112E-08  9.48814760448955E+00
 cg2d: Sum(rhs),rhsMax =  -7.48317106058494E-08  9.48766929469714E+00
 cg2d: Sum(rhs),rhsMax =  -7.48361301816658E-08  9.48711003726197E+00
 cg2d: Sum(rhs),rhsMax =  -7.48412745110727E-08  9.48646127184076E+00
 cg2d: Sum(rhs),rhsMax =  -7.48473496514634E-08  9.48571598443359E+00
 cg2d: Sum(rhs),rhsMax =  -7.48540713857437E-08  9.48486884714226E+00
 cg2d: Sum(rhs),rhsMax =  -7.48618091961362E-08  9.48391631089758E+00
 cg2d: Sum(rhs),rhsMax =  -7.48703143926832E-08  9.48285664384895E+00
 cg2d: Sum(rhs),rhsMax =  -7.48790469629057E-08  9.48168991622247E+00
 cg2d: Sum(rhs),rhsMax =  -7.48895487845402E-08  9.48041794354397E+00
 cg2d: Sum(rhs),rhsMax =  -7.49003561395511E-08  9.47904418707887E+00
 cg2d: Sum(rhs),rhsMax =  -7.49121227272553E-08  9.47757361133926E+00
 cg2d: Sum(rhs),rhsMax =  -7.49249196019264E-08  9.47601250495736E+00
 cg2d: Sum(rhs),rhsMax =  -7.49377875308710E-08  9.47436827146146E+00
 cg2d: Sum(rhs),rhsMax =  -7.49514157405429E-08  9.47264919973884E+00
 cg2d: Sum(rhs),rhsMax =  -7.49656123844034E-08  9.47086422427234E+00
 cg2d: Sum(rhs),rhsMax =  -7.49802140376232E-08  9.46902267691356E+00
 cg2d: Sum(rhs),rhsMax =  -7.49953059653308E-08  9.46713403481286E+00
 cg2d: Sum(rhs),rhsMax =  -7.50105257907308E-08  9.46520767024855E+00
 cg2d: Sum(rhs),rhsMax =  -7.50263424720288E-08  9.46325259778073E+00
 cg2d: Sum(rhs),rhsMax =  -7.50422373130277E-08  9.46127726524814E+00
 cg2d: Sum(rhs),rhsMax =  -7.50577768826588E-08  9.45928937477588E+00
 cg2d: Sum(rhs),rhsMax =  -7.50738990973332E-08  9.45729571583441E+00
 cg2d: Sum(rhs),rhsMax =  -7.50896163026482E-08  9.45530206338839E+00
 cg2d: Sum(rhs),rhsMax =  -7.51056461467670E-08  9.45331309804778E+00
 cg2d: Sum(rhs),rhsMax =  -7.51212709815263E-08  9.45133234916556E+00
 cg2d: Sum(rhs),rhsMax =  -7.51373789853460E-08  9.44936217148271E+00
 cg2d: Sum(rhs),rhsMax =  -7.51527906572846E-08  9.44740375781686E+00
 cg2d: Sum(rhs),rhsMax =  -7.51685931277279E-08  9.44545718748645E+00
 cg2d: Sum(rhs),rhsMax =  -7.51841966462052E-08  9.44352151007986E+00
 cg2d: Sum(rhs),rhsMax =  -7.51994591041694E-08  9.44159486329961E+00
 cg2d: Sum(rhs),rhsMax =  -7.52147784055524E-08  9.43967460290015E+00
 cg2d: Sum(rhs),rhsMax =  -7.52305737705683E-08  9.43775744343237E+00
 cg2d: Sum(rhs),rhsMax =  -7.52457793851136E-08  9.43583960877673E+00
 cg2d: Sum(rhs),rhsMax =  -7.52614752741465E-08  9.43391698185443E+00
 cg2d: Sum(rhs),rhsMax =  -7.52768585243757E-08  9.43198524752366E+00
 cg2d: Sum(rhs),rhsMax =  -7.52925899405454E-08  9.43004003060471E+00
 cg2d: Sum(rhs),rhsMax =  -7.53084705706897E-08  9.42807701983885E+00
 cg2d: Sum(rhs),rhsMax =  -7.53246993667744E-08  9.42609207475689E+00
 cg2d: Sum(rhs),rhsMax =  -7.53408997411498E-08  9.42408132282525E+00
 cg2d: Sum(rhs),rhsMax =  -7.53572138023628E-08  9.42204124662806E+00
 cg2d: Sum(rhs),rhsMax =  -7.53741673520381E-08  9.41996876781019E+00
 cg2d: Sum(rhs),rhsMax =  -7.53910782691491E-08  9.41786131641806E+00
 cg2d: Sum(rhs),rhsMax =  -7.54086713072866E-08  9.41571688244791E+00
 cg2d: Sum(rhs),rhsMax =  -7.54266125113645E-08  9.41353407021840E+00
 cg2d: Sum(rhs),rhsMax =  -7.54444755557415E-08  9.41131216516102E+00
 cg2d: Sum(rhs),rhsMax =  -7.54630704591364E-08  9.40905115996980E+00
 cg2d: Sum(rhs),rhsMax =  -7.54816795733859E-08  9.40675174533744E+00
 cg2d: Sum(rhs),rhsMax =  -7.55005373775930E-08  9.40441527809810E+00
 cg2d: Sum(rhs),rhsMax =  -7.55200275648349E-08  9.40204373790542E+00
 cg2d: Sum(rhs),rhsMax =  -7.55398446017352E-08  9.39963967991296E+00
 cg2d: Sum(rhs),rhsMax =  -7.55594129486781E-08  9.39720618276624E+00
 cg2d: Sum(rhs),rhsMax =  -7.55797202600661E-08  9.39474678273504E+00
 cg2d: Sum(rhs),rhsMax =  -7.56002052071381E-08  9.39226540565015E+00
 EXTERNAL_FIELDS_LOAD, it=   3600390 : Reading new data, i0,i1=    7    8 (prev=    6    7 )
 DIC_FIELDS_LOAD, it=   3600390 : Reading new data, i0,i1=    7    8 (prev=    6    7 )
 cg2d: Sum(rhs),rhsMax =  -7.56204627805346E-08  9.38976628030644E+00
 cg2d: Sum(rhs),rhsMax =  -7.56415232672225E-08  9.38724775533259E+00
 cg2d: Sum(rhs),rhsMax =  -7.56618732111747E-08  9.38470942901966E+00
 cg2d: Sum(rhs),rhsMax =  -7.56830758064098E-08  9.38215030318780E+00
 cg2d: Sum(rhs),rhsMax =  -7.57043636667731E-08  9.37956883924381E+00
 cg2d: Sum(rhs),rhsMax =  -7.57257581085469E-08  9.37696305631202E+00
 cg2d: Sum(rhs),rhsMax =  -7.57472449208763E-08  9.37433065622099E+00
 cg2d: Sum(rhs),rhsMax =  -7.57689306851717E-08  9.37166915330181E+00
 cg2d: Sum(rhs),rhsMax =  -7.57913838356217E-08  9.36897600473142E+00
 cg2d: Sum(rhs),rhsMax =  -7.58139293566273E-08  9.36624871729081E+00
 cg2d: Sum(rhs),rhsMax =  -7.58368727815650E-08  9.36348495363947E+00
 cg2d: Sum(rhs),rhsMax =  -7.58596883088103E-08  9.36068261643794E+00
 cg2d: Sum(rhs),rhsMax =  -7.58831930625092E-08  9.35783991548456E+00
 cg2d: Sum(rhs),rhsMax =  -7.59071596689864E-08  9.35495541522523E+00
 cg2d: Sum(rhs),rhsMax =  -7.59316307608060E-08  9.35202806312956E+00
 cg2d: Sum(rhs),rhsMax =  -7.59561444851897E-08  9.34905718311665E+00
 cg2d: Sum(rhs),rhsMax =  -7.59807505801291E-08  9.34604244734688E+00
 cg2d: Sum(rhs),rhsMax =  -7.60062519589155E-08  9.34298385173757E+00
 cg2d: Sum(rhs),rhsMax =  -7.60316041237274E-08  9.33988171405705E+00
 cg2d: Sum(rhs),rhsMax =  -7.60576810421298E-08  9.33673667089172E+00
 cg2d: Sum(rhs),rhsMax =  -7.60842198133105E-08  9.33354966433849E+00
 cg2d: Sum(rhs),rhsMax =  -7.61109362201751E-08  9.33032189428481E+00
 cg2d: Sum(rhs),rhsMax =  -7.61379794766981E-08  9.32705473610878E+00
 cg2d: Sum(rhs),rhsMax =  -7.61650014169390E-08  9.32374964223594E+00
 cg2d: Sum(rhs),rhsMax =  -7.61924070502573E-08  9.32040805771324E+00
 cg2d: Sum(rhs),rhsMax =  -7.62202390092170E-08  9.31703133797851E+00
 cg2d: Sum(rhs),rhsMax =  -7.62486536132201E-08  9.31362068532222E+00
 cg2d: Sum(rhs),rhsMax =  -7.62769758466675E-08  9.31017709807696E+00
 cg2d: Sum(rhs),rhsMax =  -7.63053833452432E-08  9.30670132260387E+00
 cg2d: Sum(rhs),rhsMax =  -7.63343095400160E-08  9.30319380786966E+00
 cg2d: Sum(rhs),rhsMax =  -7.63631078370963E-08  9.29965466644313E+00
 cg2d: Sum(rhs),rhsMax =  -7.63924603575106E-08  9.29608366095666E+00
 cg2d: Sum(rhs),rhsMax =  -7.64222036764295E-08  9.29248016366683E+00
 cg2d: Sum(rhs),rhsMax =  -7.64520393659041E-08  9.28884314276847E+00
 cg2d: Sum(rhs),rhsMax =  -7.64822445376012E-08  9.28517117681256E+00
 cg2d: Sum(rhs),rhsMax =  -7.65125633961361E-08  9.28146248933914E+00
 cg2d: Sum(rhs),rhsMax =  -7.65432446314662E-08  9.27771499430064E+00
 cg2d: Sum(rhs),rhsMax =  -7.65746861475236E-08  9.27392634829171E+00
 cg2d: Sum(rhs),rhsMax =  -7.66061276635810E-08  9.27009401586145E+00
 cg2d: Sum(rhs),rhsMax =  -7.66378391858780E-08  9.26621534803516E+00
 cg2d: Sum(rhs),rhsMax =  -4.88108042873137E-08  9.26228799908716E+00
 cg2d: Sum(rhs),rhsMax =  -4.88316089786167E-08  9.25830861970186E+00
 cg2d: Sum(rhs),rhsMax =  -4.88527263087235E-08  9.25427493567906E+00
 cg2d: Sum(rhs),rhsMax =  -4.88741633830614E-08  9.25018445252644E+00
 cg2d: Sum(rhs),rhsMax =  -4.88957851985106E-08  9.24603485850092E+00
 cg2d: Sum(rhs),rhsMax =  -4.89176059659258E-08  9.24182408210791E+00
 cg2d: Sum(rhs),rhsMax =  -4.89401230652220E-08  9.23755034714273E+00
 cg2d: Sum(rhs),rhsMax =  -4.89625264776805E-08  9.23321221984547E+00
 cg2d: Sum(rhs),rhsMax =  -4.89861662344993E-08  9.22880863965707E+00
 cg2d: Sum(rhs),rhsMax =  -4.90092588734115E-08  9.22433892682635E+00
 cg2d: Sum(rhs),rhsMax =  -4.88108042873137E-08  9.26228799908716E+00
 cg2d: Sum(rhs),rhsMax =  -4.88316089786167E-08  9.25830861970186E+00
 cg2d: Sum(rhs),rhsMax =  -4.88527263087235E-08  9.25427493567906E+00
 cg2d: Sum(rhs),rhsMax =  -4.88741633830614E-08  9.25018445252644E+00
 cg2d: Sum(rhs),rhsMax =  -4.88957851985106E-08  9.24603485850092E+00
 cg2d: Sum(rhs),rhsMax =  -4.89176059659258E-08  9.24182408210791E+00
 cg2d: Sum(rhs),rhsMax =  -4.89401230652220E-08  9.23755034714273E+00
 cg2d: Sum(rhs),rhsMax =  -4.89625264776805E-08  9.23321221984547E+00
 cg2d: Sum(rhs),rhsMax =  -4.89861662344993E-08  9.22880863965707E+00
 cg2d: Sum(rhs),rhsMax =   3.72550559291085E-08  9.22433879628589E+00
 cg2d: Sum(rhs),rhsMax =   7.40629779727442E-12  3.07553644598680E-02
 cg2d: Sum(rhs),rhsMax =  -4.88108042873137E-08  9.26228799908716E+00
 cg2d: Sum(rhs),rhsMax =  -4.88316089786167E-08  9.25830861970186E+00
 cg2d: Sum(rhs),rhsMax =  -4.88527263087235E-08  9.25427493567906E+00
 cg2d: Sum(rhs),rhsMax =  -4.88741633830614E-08  9.25018445252644E+00
 cg2d: Sum(rhs),rhsMax =  -4.88957851985106E-08  9.24603485850092E+00
 cg2d: Sum(rhs),rhsMax =  -4.89176059659258E-08  9.24182408210791E+00
 cg2d: Sum(rhs),rhsMax =  -4.89401230652220E-08  9.23755034714273E+00
 cg2d: Sum(rhs),rhsMax =  -4.89625264776805E-08  9.23321221984547E+00
 cg2d: Sum(rhs),rhsMax =  -5.68489731733735E-07  9.22880858599130E+00
 cg2d: Sum(rhs),rhsMax =   7.48068273992430E-12  3.08259101576813E-02
 cg2d: Sum(rhs),rhsMax =  -4.88108042873137E-08  9.26228799908716E+00
 cg2d: Sum(rhs),rhsMax =  -4.88316089786167E-08  9.25830861970186E+00
 cg2d: Sum(rhs),rhsMax =  -4.88527263087235E-08  9.25427493567906E+00
 cg2d: Sum(rhs),rhsMax =  -4.88741633830614E-08  9.25018445252644E+00
 cg2d: Sum(rhs),rhsMax =  -4.88957851985106E-08  9.24603485850092E+00
 cg2d: Sum(rhs),rhsMax =  -4.89176059659258E-08  9.24182408210791E+00
 cg2d: Sum(rhs),rhsMax =  -4.89401230652220E-08  9.23755034714273E+00
 cg2d: Sum(rhs),rhsMax =   7.01494947463743E-07  9.23321227018718E+00
 cg2d: Sum(rhs),rhsMax =   7.47446549098640E-12  3.10088975705925E-02
 cg2d: Sum(rhs),rhsMax =  -4.88108042873137E-08  9.26228799908716E+00
 cg2d: Sum(rhs),rhsMax =  -4.88316089786167E-08  9.25830861970186E+00
 cg2d: Sum(rhs),rhsMax =  -4.88527263087235E-08  9.25427493567906E+00
 cg2d: Sum(rhs),rhsMax =  -4.88741633830614E-08  9.25018445252644E+00
 cg2d: Sum(rhs),rhsMax =  -4.88957851985106E-08  9.24603485850092E+00
 cg2d: Sum(rhs),rhsMax =  -4.89176059659258E-08  9.24182408210791E+00
 cg2d: Sum(rhs),rhsMax =   1.29987448360680E-07  9.23755025453852E+00
 cg2d: Sum(rhs),rhsMax =   7.44870831681510E-12  3.11968922232942E-02
 cg2d: Sum(rhs),rhsMax =  -4.88108042873137E-08  9.26228799908716E+00
 cg2d: Sum(rhs),rhsMax =  -4.88316089786167E-08  9.25830861970186E+00
 cg2d: Sum(rhs),rhsMax =  -4.88527263087235E-08  9.25427493567906E+00
 cg2d: Sum(rhs),rhsMax =  -4.88741633830614E-08  9.25018445252644E+00
 cg2d: Sum(rhs),rhsMax =  -4.88957851985106E-08  9.24603485850092E+00
 cg2d: Sum(rhs),rhsMax =  -2.13899824075270E-07  9.24182372400867E+00
 cg2d: Sum(rhs),rhsMax =   7.49622586226906E-12  3.13879749842565E-02
 cg2d: Sum(rhs),rhsMax =  -4.88108042873137E-08  9.26228799908716E+00
 cg2d: Sum(rhs),rhsMax =  -4.88316089786167E-08  9.25830861970186E+00
 cg2d: Sum(rhs),rhsMax =  -4.88527263087235E-08  9.25427493567906E+00
 cg2d: Sum(rhs),rhsMax =  -4.88741633830614E-08  9.25018445252644E+00
 cg2d: Sum(rhs),rhsMax =  -3.09219458927146E-08  9.24603466867267E+00
 cg2d: Sum(rhs),rhsMax =   7.35411731511704E-12  3.22597534243119E-02
 cg2d: Sum(rhs),rhsMax =  -4.88108042873137E-08  9.26228799908716E+00
 cg2d: Sum(rhs),rhsMax =  -4.88316089786167E-08  9.25830861970186E+00
 cg2d: Sum(rhs),rhsMax =  -4.88527263087235E-08  9.25427493567906E+00
 cg2d: Sum(rhs),rhsMax =   2.26915034318154E-07  9.25018437374613E+00
 cg2d: Sum(rhs),rhsMax =   7.39597272314541E-12  3.21788646037333E-02
 cg2d: Sum(rhs),rhsMax =  -4.88108042873137E-08  9.26228799908716E+00
 cg2d: Sum(rhs),rhsMax =  -4.88316089786167E-08  9.25830861970186E+00
 cg2d: Sum(rhs),rhsMax =   4.24890231442987E-07  9.25427492243664E+00
 cg2d: Sum(rhs),rhsMax =   7.52142792492805E-12  3.18917907946113E-02
 cg2d: Sum(rhs),rhsMax =  -4.88108042873137E-08  9.26228799908716E+00
 cg2d: Sum(rhs),rhsMax =  -8.37913084694719E-07  9.25830846951525E+00
 cg2d: Sum(rhs),rhsMax =   7.65687513393232E-12  3.16570234460592E-02
 cg2d: Sum(rhs),rhsMax =  -4.88109890284250E-08  9.26228799894041E+00
 cg2d: Sum(rhs),rhsMax =   7.71582797653991E-12  3.14943014574111E-02
 cg2d: Sum(rhs),rhsMax =  -7.46576347410155E-08  9.50907671569018E+00
 cg2d: Sum(rhs),rhsMax =  -7.46636956705515E-08  9.50827538007810E+00
 cg2d: Sum(rhs),rhsMax =  -7.46696002806857E-08  9.50759038673436E+00
 cg2d: Sum(rhs),rhsMax =  -7.46738635371003E-08  9.50702164848735E+00
 cg2d: Sum(rhs),rhsMax =  -7.46774944104800E-08  9.50656668487862E+00
 cg2d: Sum(rhs),rhsMax =  -7.46800878914655E-08  9.50622069715104E+00
 cg2d: Sum(rhs),rhsMax =  -7.46821626762539E-08  9.50597670066013E+00
 cg2d: Sum(rhs),rhsMax =  -7.46832924392038E-08  9.50582571630982E+00
 cg2d: Sum(rhs),rhsMax =  -7.46840456145037E-08  9.50575700943737E+00
 cg2d: Sum(rhs),rhsMax =  -7.46835624454434E-08  9.50575837107225E+00
 cg2d: Sum(rhs),rhsMax =  -7.46833208609132E-08  9.50581645922263E+00
 cg2d: Sum(rhs),rhsMax =  -7.46821982033907E-08  9.50591711991761E+00
 cg2d: Sum(rhs),rhsMax =  -7.46813526575352E-08  9.50604571310823E+00
 cg2d: Sum(rhs),rhsMax =  -7.46798960449269E-08  9.50618745972881E+00
 cg2d: Sum(rhs),rhsMax =  -7.46791073424902E-08  9.50632780119137E+00
 cg2d: Sum(rhs),rhsMax =  -7.46779846849677E-08  9.50645275158785E+00
 cg2d: Sum(rhs),rhsMax =  -7.46776720461639E-08  9.50654922994562E+00
 cg2d: Sum(rhs),rhsMax =  -7.46771249282574E-08  9.50660536798306E+00
 cg2d: Sum(rhs),rhsMax =  -7.46771320336848E-08  9.50661078108177E+00
 cg2d: Sum(rhs),rhsMax =  -7.46778141547111E-08  9.50655679154863E+00
 cg2d: Sum(rhs),rhsMax =  -7.46784394323186E-08  9.50643658250018E+00
 cg2d: Sum(rhs),rhsMax =  -7.46802726325768E-08  9.50624530490270E+00
 cg2d: Sum(rhs),rhsMax =  -7.46821271491172E-08  9.50598009866199E+00
 cg2d: Sum(rhs),rhsMax =  -7.46850545851885E-08  9.50564005870858E+00
 cg2d: Sum(rhs),rhsMax =  -7.46883372926277E-08  9.50522619443621E+00
 cg2d: Sum(rhs),rhsMax =  -7.46918829008791E-08  9.50474133855045E+00
 cg2d: Sum(rhs),rhsMax =  -7.46962030007126E-08  9.50418990415982E+00
 cg2d: Sum(rhs),rhsMax =  -7.47013260138374E-08  9.50357767429962E+00
 cg2d: Sum(rhs),rhsMax =  -7.47062216532868E-08  9.50291163791579E+00
 cg2d: Sum(rhs),rhsMax =  -7.47126236433360E-08  9.50219980056318E+00
 cg2d: Sum(rhs),rhsMax =  -7.47184074612051E-08  9.50145094748729E+00
 cg2d: Sum(rhs),rhsMax =  -7.47247455024080E-08  9.50067438045622E+00
 cg2d: Sum(rhs),rhsMax =  -7.47313322335685E-08  9.49987965703835E+00
 cg2d: Sum(rhs),rhsMax =  -7.47377768561819E-08  9.49907634096511E+00
 cg2d: Sum(rhs),rhsMax =  -7.47441433190943E-08  9.49827377465974E+00
 cg2d: Sum(rhs),rhsMax =  -7.47505310982888E-08  9.49748086980356E+00
 cg2d: Sum(rhs),rhsMax =  -7.47569046666285E-08  9.49670591827534E+00
 cg2d: Sum(rhs),rhsMax =  -7.47627666441986E-08  9.49595642566026E+00
 cg2d: Sum(rhs),rhsMax =  -7.47686570434780E-08  9.49523896197083E+00
 cg2d: Sum(rhs),rhsMax =  -7.47742205930990E-08  9.49455904201468E+00
 cg2d: Sum(rhs),rhsMax =  -7.47793578170786E-08  9.49392104808525E+00
 cg2d: Sum(rhs),rhsMax =  -7.47843102999468E-08  9.49332815058320E+00
 cg2d: Sum(rhs),rhsMax =  -7.47889217223019E-08  9.49278226320107E+00
 cg2d: Sum(rhs),rhsMax =  -7.47930855027334E-08  9.49228403703651E+00
 cg2d: Sum(rhs),rhsMax =  -7.47963611047453E-08  9.49183288684206E+00
 cg2d: Sum(rhs),rhsMax =  -7.48000417161165E-08  9.49142705076112E+00
 cg2d: Sum(rhs),rhsMax =  -7.48029052033417E-08  9.49106366991647E+00
 cg2d: Sum(rhs),rhsMax =  -7.48058113231309E-08  9.49073888097194E+00
 cg2d: Sum(rhs),rhsMax =  -7.48079642676203E-08  9.49044792286002E+00
 cg2d: Sum(rhs),rhsMax =  -7.48104369563407E-08  9.49018527463466E+00
 EXTERNAL_FIELDS_LOAD, it=   3600330 : Reading new data, i0,i1=    6    7 (prev=    5    8 )
 DIC_FIELDS_LOAD, it=   3600330 : Reading new data, i0,i1=    6    7 (prev=    5    6 )
 cg2d: Sum(rhs),rhsMax =  -7.48125685845480E-08  9.48994481428126E+00
 cg2d: Sum(rhs),rhsMax =  -7.48145367879260E-08  9.48970977028949E+00
 cg2d: Sum(rhs),rhsMax =  -7.48167536812616E-08  9.48946667050908E+00
 cg2d: Sum(rhs),rhsMax =  -7.48186579357935E-08  9.48920195983684E+00
 cg2d: Sum(rhs),rhsMax =  -7.48212727330611E-08  9.48890231838115E+00
 cg2d: Sum(rhs),rhsMax =  -7.48240864822947E-08  9.48855490239494E+00
 cg2d: Sum(rhs),rhsMax =  -7.48277528828112E-08  9.48814760448955E+00
 cg2d: Sum(rhs),rhsMax =  -7.48317106058494E-08  9.48766929469714E+00
 cg2d: Sum(rhs),rhsMax =  -7.48361301816658E-08  9.48711003726197E+00
 cg2d: Sum(rhs),rhsMax =  -7.48412745110727E-08  9.48646127184076E+00
 cg2d: Sum(rhs),rhsMax =  -7.48473496514634E-08  9.48571598443359E+00
 cg2d: Sum(rhs),rhsMax =  -7.48540713857437E-08  9.48486884714226E+00
 cg2d: Sum(rhs),rhsMax =  -7.48618091961362E-08  9.48391631089758E+00
 cg2d: Sum(rhs),rhsMax =  -7.48703143926832E-08  9.48285664384895E+00
 cg2d: Sum(rhs),rhsMax =  -7.48790469629057E-08  9.48168991622247E+00
 cg2d: Sum(rhs),rhsMax =  -7.48895487845402E-08  9.48041794354397E+00
 cg2d: Sum(rhs),rhsMax =  -7.49003561395511E-08  9.47904418707887E+00
 cg2d: Sum(rhs),rhsMax =  -7.49121227272553E-08  9.47757361133926E+00
 cg2d: Sum(rhs),rhsMax =  -7.49249196019264E-08  9.47601250495736E+00
 cg2d: Sum(rhs),rhsMax =  -7.49377875308710E-08  9.47436827146146E+00
 cg2d: Sum(rhs),rhsMax =  -7.49514157405429E-08  9.47264919973884E+00
 cg2d: Sum(rhs),rhsMax =  -7.49656123844034E-08  9.47086422427234E+00
 cg2d: Sum(rhs),rhsMax =  -7.49802140376232E-08  9.46902267691356E+00
 cg2d: Sum(rhs),rhsMax =  -7.49953059653308E-08  9.46713403481286E+00
 cg2d: Sum(rhs),rhsMax =  -7.50105257907308E-08  9.46520767024855E+00
 cg2d: Sum(rhs),rhsMax =  -7.50263424720288E-08  9.46325259778073E+00
 cg2d: Sum(rhs),rhsMax =  -7.50422373130277E-08  9.46127726524814E+00
 cg2d: Sum(rhs),rhsMax =  -7.50577768826588E-08  9.45928937477588E+00
 cg2d: Sum(rhs),rhsMax =  -7.50738990973332E-08  9.45729571583441E+00
 cg2d: Sum(rhs),rhsMax =  -7.50896163026482E-08  9.45530206338839E+00
 cg2d: Sum(rhs),rhsMax =  -7.51056461467670E-08  9.45331309804778E+00
 cg2d: Sum(rhs),rhsMax =  -7.51212709815263E-08  9.45133234916556E+00
 cg2d: Sum(rhs),rhsMax =  -7.51373789853460E-08  9.44936217148271E+00
 cg2d: Sum(rhs),rhsMax =  -7.51527906572846E-08  9.44740375781686E+00
 cg2d: Sum(rhs),rhsMax =  -7.51685931277279E-08  9.44545718748645E+00
 cg2d: Sum(rhs),rhsMax =  -7.51841966462052E-08  9.44352151007986E+00
 cg2d: Sum(rhs),rhsMax =  -7.51994591041694E-08  9.44159486329961E+00
 cg2d: Sum(rhs),rhsMax =  -7.52147784055524E-08  9.43967460290015E+00
 cg2d: Sum(rhs),rhsMax =  -7.52305737705683E-08  9.43775744343237E+00
 cg2d: Sum(rhs),rhsMax =  -7.52457793851136E-08  9.43583960877673E+00
 cg2d: Sum(rhs),rhsMax =  -7.52614752741465E-08  9.43391698185443E+00
 cg2d: Sum(rhs),rhsMax =  -7.52768585243757E-08  9.43198524752366E+00
 cg2d: Sum(rhs),rhsMax =  -7.52925899405454E-08  9.43004003060471E+00
 cg2d: Sum(rhs),rhsMax =  -7.53084705706897E-08  9.42807701983885E+00
 cg2d: Sum(rhs),rhsMax =  -7.53246993667744E-08  9.42609207475689E+00
 cg2d: Sum(rhs),rhsMax =  -7.53408997411498E-08  9.42408132282525E+00
 cg2d: Sum(rhs),rhsMax =  -7.53572138023628E-08  9.42204124662806E+00
 cg2d: Sum(rhs),rhsMax =  -7.53741673520381E-08  9.41996876781019E+00
 cg2d: Sum(rhs),rhsMax =  -7.53910782691491E-08  9.41786131641806E+00
 cg2d: Sum(rhs),rhsMax =  -7.54086713072866E-08  9.41571688244791E+00
 cg2d: Sum(rhs),rhsMax =  -7.54266125113645E-08  9.41353407021840E+00
 cg2d: Sum(rhs),rhsMax =  -7.54444755557415E-08  9.41131216516102E+00
 cg2d: Sum(rhs),rhsMax =  -7.54630704591364E-08  9.40905115996980E+00
 cg2d: Sum(rhs),rhsMax =  -7.54816795733859E-08  9.40675174533744E+00
 cg2d: Sum(rhs),rhsMax =  -7.55005373775930E-08  9.40441527809810E+00
 cg2d: Sum(rhs),rhsMax =  -7.55200275648349E-08  9.40204373790542E+00
 cg2d: Sum(rhs),rhsMax =  -7.55398446017352E-08  9.39963967991296E+00
 cg2d: Sum(rhs),rhsMax =  -7.55594129486781E-08  9.39720618276624E+00
 cg2d: Sum(rhs),rhsMax =  -7.55797202600661E-08  9.39474678273504E+00
 cg2d: Sum(rhs),rhsMax =  -7.56002052071381E-08  9.39226540565015E+00
 EXTERNAL_FIELDS_LOAD, it=   3600390 : Reading new data, i0,i1=    7    8 (prev=    6    7 )
 DIC_FIELDS_LOAD, it=   3600390 : Reading new data, i0,i1=    7    8 (prev=    6    7 )
 cg2d: Sum(rhs),rhsMax =  -7.56204627805346E-08  9.38976628030644E+00
 cg2d: Sum(rhs),rhsMax =  -7.56415232672225E-08  9.38724775533259E+00
 cg2d: Sum(rhs),rhsMax =  -7.56618732111747E-08  9.38470942901966E+00
 cg2d: Sum(rhs),rhsMax =  -7.56830758064098E-08  9.38215030318780E+00
 cg2d: Sum(rhs),rhsMax =  -7.57043636667731E-08  9.37956883924381E+00
 cg2d: Sum(rhs),rhsMax =  -7.57257581085469E-08  9.37696305631202E+00
 cg2d: Sum(rhs),rhsMax =  -7.57472449208763E-08  9.37433065622099E+00
 cg2d: Sum(rhs),rhsMax =  -7.57689306851717E-08  9.37166915330181E+00
 cg2d: Sum(rhs),rhsMax =  -7.57913838356217E-08  9.36897600473142E+00
 cg2d: Sum(rhs),rhsMax =  -7.58139293566273E-08  9.36624871729081E+00
 cg2d: Sum(rhs),rhsMax =  -7.58368727815650E-08  9.36348495363947E+00
 cg2d: Sum(rhs),rhsMax =  -7.58596883088103E-08  9.36068261643794E+00
 cg2d: Sum(rhs),rhsMax =  -7.58831930625092E-08  9.35783991548456E+00
 cg2d: Sum(rhs),rhsMax =  -7.59071596689864E-08  9.35495541522523E+00
 cg2d: Sum(rhs),rhsMax =  -7.59316307608060E-08  9.35202806312956E+00
 cg2d: Sum(rhs),rhsMax =  -7.59561444851897E-08  9.34905718311665E+00
 cg2d: Sum(rhs),rhsMax =  -7.59807505801291E-08  9.34604244734688E+00
 cg2d: Sum(rhs),rhsMax =  -7.60062519589155E-08  9.34298385173757E+00
 cg2d: Sum(rhs),rhsMax =  -7.60316041237274E-08  9.33988171405705E+00
 cg2d: Sum(rhs),rhsMax =  -7.60576810421298E-08  9.33673667089172E+00
 cg2d: Sum(rhs),rhsMax =  -7.60842198133105E-08  9.33354966433849E+00
 cg2d: Sum(rhs),rhsMax =  -7.61109362201751E-08  9.33032189428481E+00
 cg2d: Sum(rhs),rhsMax =  -7.61379794766981E-08  9.32705473610878E+00
 cg2d: Sum(rhs),rhsMax =  -7.61650014169390E-08  9.32374964223594E+00
 cg2d: Sum(rhs),rhsMax =  -7.61924070502573E-08  9.32040805771324E+00
 cg2d: Sum(rhs),rhsMax =  -7.62202390092170E-08  9.31703133797851E+00
 cg2d: Sum(rhs),rhsMax =  -7.62486536132201E-08  9.31362068532222E+00
 cg2d: Sum(rhs),rhsMax =  -7.62769758466675E-08  9.31017709807696E+00
 cg2d: Sum(rhs),rhsMax =  -7.63053833452432E-08  9.30670132260387E+00
 cg2d: Sum(rhs),rhsMax =  -7.63343095400160E-08  9.30319380786966E+00
 cg2d: Sum(rhs),rhsMax =   3.56816237001567E-07  9.29965435165070E+00
 cg2d: Sum(rhs),rhsMax =   3.56953222535594E-07  9.29608331841390E+00
 cg2d: Sum(rhs),rhsMax =   3.57091948899324E-07  9.29247975207864E+00
 cg2d: Sum(rhs),rhsMax =   3.57231982661688E-07  9.28884262881602E+00
 cg2d: Sum(rhs),rhsMax =   3.57373366455249E-07  9.28517053931271E+00
 cg2d: Sum(rhs),rhsMax =   3.57516050542017E-07  9.28146171756456E+00
 cg2d: Sum(rhs),rhsMax =   3.57660773886437E-07  9.27771408582986E+00
 cg2d: Sum(rhs),rhsMax =   3.57806847262054E-07  9.27392530801698E+00
 cg2d: Sum(rhs),rhsMax =   3.57954995422460E-07  9.27009285570169E+00
 cg2d: Sum(rhs),rhsMax =   3.58104642828039E-07  9.26621408654437E+00
 cg2d: Sum(rhs),rhsMax =   3.56816237001567E-07  9.29965435165070E+00
 cg2d: Sum(rhs),rhsMax =   3.56953222535594E-07  9.29608331841390E+00
 cg2d: Sum(rhs),rhsMax =   3.57091948899324E-07  9.29247975207864E+00
 cg2d: Sum(rhs),rhsMax =   3.57231982661688E-07  9.28884262881602E+00
 cg2d: Sum(rhs),rhsMax =   3.57373366455249E-07  9.28517053931271E+00
 cg2d: Sum(rhs),rhsMax =   3.57516050542017E-07  9.28146171756456E+00
 cg2d: Sum(rhs),rhsMax =   3.57660773886437E-07  9.27771408582986E+00
 cg2d: Sum(rhs),rhsMax =   3.57806847262054E-07  9.27392530801698E+00
 cg2d: Sum(rhs),rhsMax =   3.57954995422460E-07  9.27009285570169E+00
 cg2d: Sum(rhs),rhsMax =   4.57001185338868E-07  9.26621414809511E+00
 cg2d: Sum(rhs),rhsMax =   7.84083908911271E-12  3.13065069139053E-02
 cg2d: Sum(rhs),rhsMax =   3.56816237001567E-07  9.29965435165070E+00
 cg2d: Sum(rhs),rhsMax =   3.56953222535594E-07  9.29608331841390E+00
 cg2d: Sum(rhs),rhsMax =   3.57091948899324E-07  9.29247975207864E+00
 cg2d: Sum(rhs),rhsMax =   3.57231982661688E-07  9.28884262881602E+00
 cg2d: Sum(rhs),rhsMax =   3.57373366455249E-07  9.28517053931271E+00
 cg2d: Sum(rhs),rhsMax =   3.57516050542017E-07  9.28146171756456E+00
 cg2d: Sum(rhs),rhsMax =   3.57660773886437E-07  9.27771408582986E+00
 cg2d: Sum(rhs),rhsMax =   3.57806847262054E-07  9.27392530801698E+00
 cg2d: Sum(rhs),rhsMax =   9.34606973146401E-07  9.27009249376295E+00
 cg2d: Sum(rhs),rhsMax =   7.92210741451527E-12  3.10717478543390E-02
 cg2d: Sum(rhs),rhsMax =   3.56816237001567E-07  9.29965435165070E+00
 cg2d: Sum(rhs),rhsMax =   3.56953222535594E-07  9.29608331841390E+00
 cg2d: Sum(rhs),rhsMax =   3.57091948899324E-07  9.29247975207864E+00
 cg2d: Sum(rhs),rhsMax =   3.57231982661688E-07  9.28884262881602E+00
 cg2d: Sum(rhs),rhsMax =   3.57373366455249E-07  9.28517053931271E+00
 cg2d: Sum(rhs),rhsMax =   3.57516050542017E-07  9.28146171756456E+00
 cg2d: Sum(rhs),rhsMax =   3.57660773886437E-07  9.27771408582986E+00
 cg2d: Sum(rhs),rhsMax =   6.62456244526766E-07  9.27392533739123E+00
 cg2d: Sum(rhs),rhsMax =   7.81397169191678E-12  3.17718563161146E-02
 cg2d: Sum(rhs),rhsMax =   3.56816237001567E-07  9.29965435165070E+00
 cg2d: Sum(rhs),rhsMax =   3.56953222535594E-07  9.29608331841390E+00
 cg2d: Sum(rhs),rhsMax =   3.57091948899324E-07  9.29247975207864E+00
 cg2d: Sum(rhs),rhsMax =   3.57231982661688E-07  9.28884262881602E+00
 cg2d: Sum(rhs),rhsMax =   3.57373366455249E-07  9.28517053931271E+00
 cg2d: Sum(rhs),rhsMax =   3.57516050542017E-07  9.28146171756456E+00
 cg2d: Sum(rhs),rhsMax =   9.19533214016610E-07  9.27771434958687E+00
 cg2d: Sum(rhs),rhsMax =   7.74513786439002E-12  3.22159321093617E-02
 cg2d: Sum(rhs),rhsMax =   3.56816237001567E-07  9.29965435165070E+00
 cg2d: Sum(rhs),rhsMax =   3.56953222535594E-07  9.29608331841390E+00
 cg2d: Sum(rhs),rhsMax =   3.57091948899324E-07  9.29247975207864E+00
 cg2d: Sum(rhs),rhsMax =   3.57231982661688E-07  9.28884262881602E+00
 cg2d: Sum(rhs),rhsMax =   3.57373366455249E-07  9.28517053931271E+00
 cg2d: Sum(rhs),rhsMax =  -1.51516495350279E-07  9.28146204614197E+00
 cg2d: Sum(rhs),rhsMax =   7.60547180789217E-12  3.29049976238777E-02
 cg2d: Sum(rhs),rhsMax =   3.56816237001567E-07  9.29965435165070E+00
 cg2d: Sum(rhs),rhsMax =   3.56953222535594E-07  9.29608331841390E+00
 cg2d: Sum(rhs),rhsMax =   3.57091948899324E-07  9.29247975207864E+00
 cg2d: Sum(rhs),rhsMax =   3.57231982661688E-07  9.28884262881602E+00
 cg2d: Sum(rhs),rhsMax =   9.56583150468759E-08  9.28517023967389E+00
 cg2d: Sum(rhs),rhsMax =   7.53019868682259E-12  3.36999589484412E-02
 cg2d: Sum(rhs),rhsMax =   3.56816237001567E-07  9.29965435165070E+00
 cg2d: Sum(rhs),rhsMax =   3.56953222535594E-07  9.29608331841390E+00
 cg2d: Sum(rhs),rhsMax =   3.57091948899324E-07  9.29247975207864E+00
 cg2d: Sum(rhs),rhsMax =   9.44896754617730E-07  9.28884230179414E+00
 cg2d: Sum(rhs),rhsMax =   7.57816032148639E-12  3.37444743704151E-02
 cg2d: Sum(rhs),rhsMax =   3.56816237001567E-07  9.29965435165070E+00
 cg2d: Sum(rhs),rhsMax =   3.56953222535594E-07  9.29608331841390E+00
 cg2d: Sum(rhs),rhsMax =   4.87419335115646E-07  9.29248010574791E+00
 cg2d: Sum(rhs),rhsMax =   7.37832017705387E-12  3.48155156443886E-02
 cg2d: Sum(rhs),rhsMax =   3.56816237001567E-07  9.29965435165070E+00
 cg2d: Sum(rhs),rhsMax =  -2.91624211001817E-07  9.29608323821167E+00
 cg2d: Sum(rhs),rhsMax =   7.47224504493715E-12  3.47672224658241E-02
 cg2d: Sum(rhs),rhsMax =   3.56816492796952E-07  9.29965435179277E+00
(PID.TID 0000.0001) // =======================================================
(PID.TID 0000.0001) // Begin AD_MONITOR dynamic field statistics
(PID.TID 0000.0001) // =======================================================
(PID.TID 0000.0001) %MON ad_time_tsnumber             =               3600421
(PID.TID 0000.0001) %MON ad_time_secondsf             =   1.5553818720000E+11
(PID.TID 0000.0001) %MON ad_dynstat_adeta_max         =   5.1221612325516E+02
(PID.TID 0000.0001) %MON ad_dynstat_adeta_min         =  -3.9798254898010E+03
(PID.TID 0000.0001) %MON ad_dynstat_adeta_mean        =  -3.5523288341519E+01
(PID.TID 0000.0001) %MON ad_dynstat_adeta_sd          =   7.5039964177238E+02
(PID.TID 0000.0001) %MON ad_dynstat_adeta_del2        =   6.5829363704333E+00
(PID.TID 0000.0001) %MON ad_dynstat_aduvel_max        =   2.7241506089288E+04
(PID.TID 0000.0001) %MON ad_dynstat_aduvel_min        =  -1.2943454772987E+04
(PID.TID 0000.0001) %MON ad_dynstat_aduvel_mean       =   8.1182127203683E+01
(PID.TID 0000.0001) %MON ad_dynstat_aduvel_sd         =   7.9373670003804E+02
(PID.TID 0000.0001) %MON ad_dynstat_aduvel_del2       =   3.1865890069269E+00
(PID.TID 0000.0001) %MON ad_dynstat_advvel_max        =   1.0791547582304E+04
(PID.TID 0000.0001) %MON ad_dynstat_advvel_min        =  -7.8050583588454E+03
(PID.TID 0000.0001) %MON ad_dynstat_advvel_mean       =  -2.5973262429009E+01
(PID.TID 0000.0001) %MON ad_dynstat_advvel_sd         =   7.5024516700574E+02
(PID.TID 0000.0001) %MON ad_dynstat_advvel_del2       =   3.2737760600156E+00
(PID.TID 0000.0001) %MON ad_dynstat_adwvel_max        =   4.3519919972039E+03
(PID.TID 0000.0001) %MON ad_dynstat_adwvel_min        =  -5.6375675627212E+04
(PID.TID 0000.0001) %MON ad_dynstat_adwvel_mean       =  -1.1415108247329E+00
(PID.TID 0000.0001) %MON ad_dynstat_adwvel_sd         =   1.5584968911239E+02
(PID.TID 0000.0001) %MON ad_dynstat_adwvel_del2       =   4.6178695649407E+00
(PID.TID 0000.0001) %MON ad_dynstat_adtheta_max       =   2.3674089481741E+03
(PID.TID 0000.0001) %MON ad_dynstat_adtheta_min       =  -1.9064820492465E+03
(PID.TID 0000.0001) %MON ad_dynstat_adtheta_mean      =   1.0318942678268E+00
(PID.TID 0000.0001) %MON ad_dynstat_adtheta_sd        =   1.7291550021955E+02
(PID.TID 0000.0001) %MON ad_dynstat_adtheta_del2      =   5.9234822511596E-01
(PID.TID 0000.0001) %MON ad_dynstat_adsalt_max        =   9.3485433671692E+03
(PID.TID 0000.0001) %MON ad_dynstat_adsalt_min        =  -1.1797526386215E+04
(PID.TID 0000.0001) %MON ad_dynstat_adsalt_mean       =  -5.5197740795138E+00
(PID.TID 0000.0001) %MON ad_dynstat_adsalt_sd         =   9.2313373418618E+02
(PID.TID 0000.0001) %MON ad_dynstat_adsalt_del2       =   3.0723421426319E+00
(PID.TID 0000.0001) %MON ad_dynstat_adsst_max         =   1.3054057110141E+01
(PID.TID 0000.0001) %MON ad_dynstat_adsst_min         =  -5.3514988545660E+00
(PID.TID 0000.0001) %MON ad_dynstat_adsst_mean        =   4.9755987569465E-02
(PID.TID 0000.0001) %MON ad_dynstat_adsst_sd          =   1.7809310787342E+00
(PID.TID 0000.0001) %MON ad_dynstat_adsst_del2        =   2.1795890897746E-02
(PID.TID 0000.0001) %MON ad_dynstat_adsss_max         =   1.7402043108843E+01
(PID.TID 0000.0001) %MON ad_dynstat_adsss_min         =  -4.8367984550710E+01
(PID.TID 0000.0001) %MON ad_dynstat_adsss_mean        =   3.0287133101068E-02
(PID.TID 0000.0001) %MON ad_dynstat_adsss_sd          =   5.2804518502411E+00
(PID.TID 0000.0001) %MON ad_dynstat_adsss_del2        =   6.4905579555194E-02
(PID.TID 0000.0001) %MON ad_forcing_adqnet_max        =   0.0000000000000E+00
(PID.TID 0000.0001) %MON ad_forcing_adqnet_min        =   0.0000000000000E+00
(PID.TID 0000.0001) %MON ad_forcing_adqnet_mean       =   0.0000000000000E+00
(PID.TID 0000.0001) %MON ad_forcing_adqnet_sd         =   0.0000000000000E+00
(PID.TID 0000.0001) %MON ad_forcing_adqnet_del2       =   0.0000000000000E+00
(PID.TID 0000.0001) %MON ad_forcing_adqsw_max         =   7.7934674688952E-02
(PID.TID 0000.0001) %MON ad_forcing_adqsw_min         =  -2.0020402525804E-01
(PID.TID 0000.0001) %MON ad_forcing_adqsw_mean        =  -4.2594524393345E-04
(PID.TID 0000.0001) %MON ad_forcing_adqsw_sd          =   1.3944057199695E-02
(PID.TID 0000.0001) %MON ad_forcing_adqsw_del2        =   1.9268596482461E-04
(PID.TID 0000.0001) %MON ad_forcing_adempmr_max       =   0.0000000000000E+00
(PID.TID 0000.0001) %MON ad_forcing_adempmr_min       =   0.0000000000000E+00
(PID.TID 0000.0001) %MON ad_forcing_adempmr_mean      =   0.0000000000000E+00
(PID.TID 0000.0001) %MON ad_forcing_adempmr_sd        =   0.0000000000000E+00
(PID.TID 0000.0001) %MON ad_forcing_adempmr_del2      =   0.0000000000000E+00
(PID.TID 0000.0001) %MON ad_forcing_adfu_max          =   0.0000000000000E+00
(PID.TID 0000.0001) %MON ad_forcing_adfu_min          =   0.0000000000000E+00
(PID.TID 0000.0001) %MON ad_forcing_adfu_mean         =   0.0000000000000E+00
(PID.TID 0000.0001) %MON ad_forcing_adfu_sd           =   0.0000000000000E+00
(PID.TID 0000.0001) %MON ad_forcing_adfu_del2         =   0.0000000000000E+00
(PID.TID 0000.0001) %MON ad_forcing_adfv_max          =   0.0000000000000E+00
(PID.TID 0000.0001) %MON ad_forcing_adfv_min          =   0.0000000000000E+00
(PID.TID 0000.0001) %MON ad_forcing_adfv_mean         =   0.0000000000000E+00
(PID.TID 0000.0001) %MON ad_forcing_adfv_sd           =   0.0000000000000E+00
(PID.TID 0000.0001) %MON ad_forcing_adfv_del2         =   0.0000000000000E+00
(PID.TID 0000.0001) // =======================================================
(PID.TID 0000.0001) // End AD_MONITOR dynamic field statistics
(PID.TID 0000.0001) // =======================================================
(PID.TID 0000.0001) // =======================================================
(PID.TID 0000.0001) // Begin AD_MONITOR ptracer field statistics
(PID.TID 0000.0001) // =======================================================
(PID.TID 0000.0001) %MON ad_trcstat_adptracer01_max   =   0.0000000000000E+00
(PID.TID 0000.0001) %MON ad_trcstat_adptracer01_min   =   0.0000000000000E+00
(PID.TID 0000.0001) %MON ad_trcstat_adptracer01_mean  =   0.0000000000000E+00
(PID.TID 0000.0001) %MON ad_trcstat_adptracer01_sd    =   0.0000000000000E+00
(PID.TID 0000.0001) %MON ad_trcstat_adptracer01_del2  =   0.0000000000000E+00
(PID.TID 0000.0001) %MON ad_trcstat_adptracer02_max   =   0.0000000000000E+00
(PID.TID 0000.0001) %MON ad_trcstat_adptracer02_min   =   0.0000000000000E+00
(PID.TID 0000.0001) %MON ad_trcstat_adptracer02_mean  =   0.0000000000000E+00
(PID.TID 0000.0001) %MON ad_trcstat_adptracer02_sd    =   0.0000000000000E+00
(PID.TID 0000.0001) %MON ad_trcstat_adptracer02_del2  =   0.0000000000000E+00
(PID.TID 0000.0001) %MON ad_trcstat_adptracer03_max   =   2.1992745270531E-20
(PID.TID 0000.0001) %MON ad_trcstat_adptracer03_min   =  -4.5584874905117E-22
(PID.TID 0000.0001) %MON ad_trcstat_adptracer03_mean  =   4.5563000951842E-26
(PID.TID 0000.0001) %MON ad_trcstat_adptracer03_sd    =   3.0277647418550E-23
(PID.TID 0000.0001) %MON ad_trcstat_adptracer03_del2  =   3.6843874177287E-25
(PID.TID 0000.0001) %MON ad_trcstat_adptracer04_max   =   6.6341017981892E+05
(PID.TID 0000.0001) %MON ad_trcstat_adptracer04_min   =  -1.1087206926807E+07
(PID.TID 0000.0001) %MON ad_trcstat_adptracer04_mean  =  -1.0391055330010E+05
(PID.TID 0000.0001) %MON ad_trcstat_adptracer04_sd    =   9.2202348464494E+05
(PID.TID 0000.0001) %MON ad_trcstat_adptracer04_del2  =   1.9871126328704E+03
(PID.TID 0000.0001) %MON ad_trcstat_adptracer05_max   =   6.2538628842850E+05
(PID.TID 0000.0001) %MON ad_trcstat_adptracer05_min   =  -3.1870629104884E+04
(PID.TID 0000.0001) %MON ad_trcstat_adptracer05_mean  =   5.9720161491769E+03
(PID.TID 0000.0001) %MON ad_trcstat_adptracer05_sd    =   5.2945104121225E+04
(PID.TID 0000.0001) %MON ad_trcstat_adptracer05_del2  =   1.1462524189883E+02
(PID.TID 0000.0001) %MON ad_trcstat_adptracer06_max   =   5.1045682206061E+09
(PID.TID 0000.0001) %MON ad_trcstat_adptracer06_min   =  -4.1673182108166E+09
(PID.TID 0000.0001) %MON ad_trcstat_adptracer06_mean  =   3.1445341041838E+06
(PID.TID 0000.0001) %MON ad_trcstat_adptracer06_sd    =   1.9153563764494E+08
(PID.TID 0000.0001) %MON ad_trcstat_adptracer06_del2  =   8.9314967155661E+05
(PID.TID 0000.0001) %MON ad_trcstat_adptracer07_max   =   0.0000000000000E+00
(PID.TID 0000.0001) %MON ad_trcstat_adptracer07_min   =   0.0000000000000E+00
(PID.TID 0000.0001) %MON ad_trcstat_adptracer07_mean  =   0.0000000000000E+00
(PID.TID 0000.0001) %MON ad_trcstat_adptracer07_sd    =   0.0000000000000E+00
(PID.TID 0000.0001) %MON ad_trcstat_adptracer07_del2  =   0.0000000000000E+00
(PID.TID 0000.0001) %MON ad_trcstat_adptracer08_max   =   0.0000000000000E+00
(PID.TID 0000.0001) %MON ad_trcstat_adptracer08_min   =   0.0000000000000E+00
(PID.TID 0000.0001) %MON ad_trcstat_adptracer08_mean  =   0.0000000000000E+00
(PID.TID 0000.0001) %MON ad_trcstat_adptracer08_sd    =   0.0000000000000E+00
(PID.TID 0000.0001) %MON ad_trcstat_adptracer08_del2  =   0.0000000000000E+00
(PID.TID 0000.0001) %MON ad_trcstat_adptracer09_max   =   0.0000000000000E+00
(PID.TID 0000.0001) %MON ad_trcstat_adptracer09_min   =   0.0000000000000E+00
(PID.TID 0000.0001) %MON ad_trcstat_adptracer09_mean  =   0.0000000000000E+00
(PID.TID 0000.0001) %MON ad_trcstat_adptracer09_sd    =   0.0000000000000E+00
(PID.TID 0000.0001) %MON ad_trcstat_adptracer09_del2  =   0.0000000000000E+00
(PID.TID 0000.0001) // =======================================================
(PID.TID 0000.0001) // End AD_MONITOR ptracer field statistics
(PID.TID 0000.0001) // =======================================================
 cg2d: Sum(rhs),rhsMax =   7.53574980194571E-12  3.44854529274280E-02
 cg2d: Sum(rhs),rhsMax =  -7.46576347410155E-08  9.50907671569018E+00
 cg2d: Sum(rhs),rhsMax =  -7.46636956705515E-08  9.50827538007810E+00
 cg2d: Sum(rhs),rhsMax =  -7.46696002806857E-08  9.50759038673436E+00
 cg2d: Sum(rhs),rhsMax =  -7.46738635371003E-08  9.50702164848735E+00
 cg2d: Sum(rhs),rhsMax =  -7.46774944104800E-08  9.50656668487862E+00
 cg2d: Sum(rhs),rhsMax =  -7.46800878914655E-08  9.50622069715104E+00
 cg2d: Sum(rhs),rhsMax =  -7.46821626762539E-08  9.50597670066013E+00
 cg2d: Sum(rhs),rhsMax =  -7.46832924392038E-08  9.50582571630982E+00
 cg2d: Sum(rhs),rhsMax =  -7.46840456145037E-08  9.50575700943737E+00
 cg2d: Sum(rhs),rhsMax =  -7.46835624454434E-08  9.50575837107225E+00
 cg2d: Sum(rhs),rhsMax =  -7.46833208609132E-08  9.50581645922263E+00
 cg2d: Sum(rhs),rhsMax =  -7.46821982033907E-08  9.50591711991761E+00
 cg2d: Sum(rhs),rhsMax =  -7.46813526575352E-08  9.50604571310823E+00
 cg2d: Sum(rhs),rhsMax =  -7.46798960449269E-08  9.50618745972881E+00
 cg2d: Sum(rhs),rhsMax =  -7.46791073424902E-08  9.50632780119137E+00
 cg2d: Sum(rhs),rhsMax =  -7.46779846849677E-08  9.50645275158785E+00
 cg2d: Sum(rhs),rhsMax =  -7.46776720461639E-08  9.50654922994562E+00
 cg2d: Sum(rhs),rhsMax =  -7.46771249282574E-08  9.50660536798306E+00
 cg2d: Sum(rhs),rhsMax =  -7.46771320336848E-08  9.50661078108177E+00
 cg2d: Sum(rhs),rhsMax =  -7.46778141547111E-08  9.50655679154863E+00
 cg2d: Sum(rhs),rhsMax =  -7.46784394323186E-08  9.50643658250018E+00
 cg2d: Sum(rhs),rhsMax =  -7.46802726325768E-08  9.50624530490270E+00
 cg2d: Sum(rhs),rhsMax =  -7.46821271491172E-08  9.50598009866199E+00
 cg2d: Sum(rhs),rhsMax =  -7.46850545851885E-08  9.50564005870858E+00
 cg2d: Sum(rhs),rhsMax =  -7.46883372926277E-08  9.50522619443621E+00
 cg2d: Sum(rhs),rhsMax =  -7.46918829008791E-08  9.50474133855045E+00
 cg2d: Sum(rhs),rhsMax =  -7.46962030007126E-08  9.50418990415982E+00
 cg2d: Sum(rhs),rhsMax =  -7.47013260138374E-08  9.50357767429962E+00
 cg2d: Sum(rhs),rhsMax =  -7.47062216532868E-08  9.50291163791579E+00
 cg2d: Sum(rhs),rhsMax =  -7.47126236433360E-08  9.50219980056318E+00
 cg2d: Sum(rhs),rhsMax =  -7.47184074612051E-08  9.50145094748729E+00
 cg2d: Sum(rhs),rhsMax =  -7.47247455024080E-08  9.50067438045622E+00
 cg2d: Sum(rhs),rhsMax =  -7.47313322335685E-08  9.49987965703835E+00
 cg2d: Sum(rhs),rhsMax =  -7.47377768561819E-08  9.49907634096511E+00
 cg2d: Sum(rhs),rhsMax =  -7.47441433190943E-08  9.49827377465974E+00
 cg2d: Sum(rhs),rhsMax =  -7.47505310982888E-08  9.49748086980356E+00
 cg2d: Sum(rhs),rhsMax =  -7.47569046666285E-08  9.49670591827534E+00
 cg2d: Sum(rhs),rhsMax =  -7.47627666441986E-08  9.49595642566026E+00
 cg2d: Sum(rhs),rhsMax =  -7.47686570434780E-08  9.49523896197083E+00
 cg2d: Sum(rhs),rhsMax =  -7.47742205930990E-08  9.49455904201468E+00
 cg2d: Sum(rhs),rhsMax =  -7.47793578170786E-08  9.49392104808525E+00
 cg2d: Sum(rhs),rhsMax =  -7.47843102999468E-08  9.49332815058320E+00
 cg2d: Sum(rhs),rhsMax =  -7.47889217223019E-08  9.49278226320107E+00
 cg2d: Sum(rhs),rhsMax =  -7.47930855027334E-08  9.49228403703651E+00
 cg2d: Sum(rhs),rhsMax =  -7.47963611047453E-08  9.49183288684206E+00
 cg2d: Sum(rhs),rhsMax =  -7.48000417161165E-08  9.49142705076112E+00
 cg2d: Sum(rhs),rhsMax =  -7.48029052033417E-08  9.49106366991647E+00
 cg2d: Sum(rhs),rhsMax =  -7.48058113231309E-08  9.49073888097194E+00
 cg2d: Sum(rhs),rhsMax =  -7.48079642676203E-08  9.49044792286002E+00
 cg2d: Sum(rhs),rhsMax =  -7.48104369563407E-08  9.49018527463466E+00
 EXTERNAL_FIELDS_LOAD, it=   3600330 : Reading new data, i0,i1=    6    7 (prev=    5    8 )
 DIC_FIELDS_LOAD, it=   3600330 : Reading new data, i0,i1=    6    7 (prev=    5    6 )
 cg2d: Sum(rhs),rhsMax =  -7.48125685845480E-08  9.48994481428126E+00
 cg2d: Sum(rhs),rhsMax =  -7.48145367879260E-08  9.48970977028949E+00
 cg2d: Sum(rhs),rhsMax =  -7.48167536812616E-08  9.48946667050908E+00
 cg2d: Sum(rhs),rhsMax =  -7.48186579357935E-08  9.48920195983684E+00
 cg2d: Sum(rhs),rhsMax =  -7.48212727330611E-08  9.48890231838115E+00
 cg2d: Sum(rhs),rhsMax =  -7.48240864822947E-08  9.48855490239494E+00
 cg2d: Sum(rhs),rhsMax =  -7.48277528828112E-08  9.48814760448955E+00
 cg2d: Sum(rhs),rhsMax =  -7.48317106058494E-08  9.48766929469714E+00
 cg2d: Sum(rhs),rhsMax =  -7.48361301816658E-08  9.48711003726197E+00
 cg2d: Sum(rhs),rhsMax =  -7.48412745110727E-08  9.48646127184076E+00
 cg2d: Sum(rhs),rhsMax =  -7.48473496514634E-08  9.48571598443359E+00
 cg2d: Sum(rhs),rhsMax =  -7.48540713857437E-08  9.48486884714226E+00
 cg2d: Sum(rhs),rhsMax =  -7.48618091961362E-08  9.48391631089758E+00
 cg2d: Sum(rhs),rhsMax =  -7.48703143926832E-08  9.48285664384895E+00
 cg2d: Sum(rhs),rhsMax =  -7.48790469629057E-08  9.48168991622247E+00
 cg2d: Sum(rhs),rhsMax =  -7.48895487845402E-08  9.48041794354397E+00
 cg2d: Sum(rhs),rhsMax =  -7.49003561395511E-08  9.47904418707887E+00
 cg2d: Sum(rhs),rhsMax =  -7.49121227272553E-08  9.47757361133926E+00
 cg2d: Sum(rhs),rhsMax =  -7.49249196019264E-08  9.47601250495736E+00
 cg2d: Sum(rhs),rhsMax =  -7.49377875308710E-08  9.47436827146146E+00
 cg2d: Sum(rhs),rhsMax =  -7.49514157405429E-08  9.47264919973884E+00
 cg2d: Sum(rhs),rhsMax =  -7.49656123844034E-08  9.47086422427234E+00
 cg2d: Sum(rhs),rhsMax =  -7.49802140376232E-08  9.46902267691356E+00
 cg2d: Sum(rhs),rhsMax =  -7.49953059653308E-08  9.46713403481286E+00
 cg2d: Sum(rhs),rhsMax =  -7.50105257907308E-08  9.46520767024855E+00
 cg2d: Sum(rhs),rhsMax =  -7.50263424720288E-08  9.46325259778073E+00
 cg2d: Sum(rhs),rhsMax =  -7.50422373130277E-08  9.46127726524814E+00
 cg2d: Sum(rhs),rhsMax =  -7.50577768826588E-08  9.45928937477588E+00
 cg2d: Sum(rhs),rhsMax =  -7.50738990973332E-08  9.45729571583441E+00
 cg2d: Sum(rhs),rhsMax =  -7.50896163026482E-08  9.45530206338839E+00
 cg2d: Sum(rhs),rhsMax =  -7.51056461467670E-08  9.45331309804778E+00
 cg2d: Sum(rhs),rhsMax =  -7.51212709815263E-08  9.45133234916556E+00
 cg2d: Sum(rhs),rhsMax =  -7.51373789853460E-08  9.44936217148271E+00
 cg2d: Sum(rhs),rhsMax =  -7.51527906572846E-08  9.44740375781686E+00
 cg2d: Sum(rhs),rhsMax =  -7.51685931277279E-08  9.44545718748645E+00
 cg2d: Sum(rhs),rhsMax =  -7.51841966462052E-08  9.44352151007986E+00
 cg2d: Sum(rhs),rhsMax =  -7.51994591041694E-08  9.44159486329961E+00
 cg2d: Sum(rhs),rhsMax =  -7.52147784055524E-08  9.43967460290015E+00
 cg2d: Sum(rhs),rhsMax =  -7.52305737705683E-08  9.43775744343237E+00
 cg2d: Sum(rhs),rhsMax =  -7.52457793851136E-08  9.43583960877673E+00
 cg2d: Sum(rhs),rhsMax =  -7.52614752741465E-08  9.43391698185443E+00
 cg2d: Sum(rhs),rhsMax =  -7.52768585243757E-08  9.43198524752366E+00
 cg2d: Sum(rhs),rhsMax =  -7.52925899405454E-08  9.43004003060471E+00
 cg2d: Sum(rhs),rhsMax =  -7.53084705706897E-08  9.42807701983885E+00
 cg2d: Sum(rhs),rhsMax =  -7.53246993667744E-08  9.42609207475689E+00
 cg2d: Sum(rhs),rhsMax =  -7.53408997411498E-08  9.42408132282525E+00
 cg2d: Sum(rhs),rhsMax =  -7.53572138023628E-08  9.42204124662806E+00
 cg2d: Sum(rhs),rhsMax =  -7.53741673520381E-08  9.41996876781019E+00
 cg2d: Sum(rhs),rhsMax =  -7.53910782691491E-08  9.41786131641806E+00
 cg2d: Sum(rhs),rhsMax =  -7.54086713072866E-08  9.41571688244791E+00
 cg2d: Sum(rhs),rhsMax =  -7.54266125113645E-08  9.41353407021840E+00
 cg2d: Sum(rhs),rhsMax =  -7.54444755557415E-08  9.41131216516102E+00
 cg2d: Sum(rhs),rhsMax =  -7.54630704591364E-08  9.40905115996980E+00
 cg2d: Sum(rhs),rhsMax =  -7.54816795733859E-08  9.40675174533744E+00
 cg2d: Sum(rhs),rhsMax =  -7.55005373775930E-08  9.40441527809810E+00
 cg2d: Sum(rhs),rhsMax =  -7.55200275648349E-08  9.40204373790542E+00
 cg2d: Sum(rhs),rhsMax =  -7.55398446017352E-08  9.39963967991296E+00
 cg2d: Sum(rhs),rhsMax =  -7.55594129486781E-08  9.39720618276624E+00
 cg2d: Sum(rhs),rhsMax =  -7.55797202600661E-08  9.39474678273504E+00
 cg2d: Sum(rhs),rhsMax =  -7.56002052071381E-08  9.39226540565015E+00
 EXTERNAL_FIELDS_LOAD, it=   3600390 : Reading new data, i0,i1=    7    8 (prev=    6    7 )
 DIC_FIELDS_LOAD, it=   3600390 : Reading new data, i0,i1=    7    8 (prev=    6    7 )
 cg2d: Sum(rhs),rhsMax =  -7.56204627805346E-08  9.38976628030644E+00
 cg2d: Sum(rhs),rhsMax =  -7.56415232672225E-08  9.38724775533259E+00
 cg2d: Sum(rhs),rhsMax =  -7.56618732111747E-08  9.38470942901966E+00
 cg2d: Sum(rhs),rhsMax =  -7.56830758064098E-08  9.38215030318780E+00
 cg2d: Sum(rhs),rhsMax =  -7.57043636667731E-08  9.37956883924381E+00
 cg2d: Sum(rhs),rhsMax =  -7.57257581085469E-08  9.37696305631202E+00
 cg2d: Sum(rhs),rhsMax =  -7.57472449208763E-08  9.37433065622099E+00
 cg2d: Sum(rhs),rhsMax =  -7.57689306851717E-08  9.37166915330181E+00
 cg2d: Sum(rhs),rhsMax =  -7.57913838356217E-08  9.36897600473142E+00
 cg2d: Sum(rhs),rhsMax =  -7.58139293566273E-08  9.36624871729081E+00
 cg2d: Sum(rhs),rhsMax =  -7.58368727815650E-08  9.36348495363947E+00
 cg2d: Sum(rhs),rhsMax =  -7.58596883088103E-08  9.36068261643794E+00
 cg2d: Sum(rhs),rhsMax =  -7.58831930625092E-08  9.35783991548456E+00
 cg2d: Sum(rhs),rhsMax =  -7.59071596689864E-08  9.35495541522523E+00
 cg2d: Sum(rhs),rhsMax =  -7.59316307608060E-08  9.35202806312956E+00
 cg2d: Sum(rhs),rhsMax =  -7.59561444851897E-08  9.34905718311665E+00
 cg2d: Sum(rhs),rhsMax =  -7.59807505801291E-08  9.34604244734688E+00
 cg2d: Sum(rhs),rhsMax =  -7.60062519589155E-08  9.34298385173757E+00
 cg2d: Sum(rhs),rhsMax =  -7.60316041237274E-08  9.33988171405705E+00
 cg2d: Sum(rhs),rhsMax =  -7.60576810421298E-08  9.33673667089172E+00
 cg2d: Sum(rhs),rhsMax =  -1.00846225592477E-06  9.33354936903473E+00
 cg2d: Sum(rhs),rhsMax =  -1.00881101161576E-06  9.33032157616550E+00
 cg2d: Sum(rhs),rhsMax =  -1.00916516743155E-06  9.32705436968557E+00
 cg2d: Sum(rhs),rhsMax =  -1.00952331649751E-06  9.32374921338577E+00
 cg2d: Sum(rhs),rhsMax =  -1.00988531670509E-06  9.32040756144028E+00
 cg2d: Sum(rhs),rhsMax =  -1.01025127463572E-06  9.31703077224134E+00
 cg2d: Sum(rhs),rhsMax =  -1.01062164503674E-06  9.31362004706407E+00
 cg2d: Sum(rhs),rhsMax =  -1.01099536209404E-06  9.31017638277708E+00
 cg2d: Sum(rhs),rhsMax =  -1.01137327845890E-06  9.30670052622623E+00
 cg2d: Sum(rhs),rhsMax =  -1.01175468358861E-06  9.30319292951397E+00
 cg2d: Sum(rhs),rhsMax =  -1.00846225592477E-06  9.33354936903473E+00
 cg2d: Sum(rhs),rhsMax =  -1.00881101161576E-06  9.33032157616550E+00
 cg2d: Sum(rhs),rhsMax =  -1.00916516743155E-06  9.32705436968557E+00
 cg2d: Sum(rhs),rhsMax =  -1.00952331649751E-06  9.32374921338577E+00
 cg2d: Sum(rhs),rhsMax =  -1.00988531670509E-06  9.32040756144028E+00
 cg2d: Sum(rhs),rhsMax =  -1.01025127463572E-06  9.31703077224134E+00
 cg2d: Sum(rhs),rhsMax =  -1.01062164503674E-06  9.31362004706407E+00
 cg2d: Sum(rhs),rhsMax =  -1.01099536209404E-06  9.31017638277708E+00
 cg2d: Sum(rhs),rhsMax =  -1.01137327845890E-06  9.30670052622623E+00
 cg2d: Sum(rhs),rhsMax =  -1.09066839115712E-07  9.30319293179469E+00
 cg2d: Sum(rhs),rhsMax =   7.54862838903136E-12  3.47047108222582E-02
 cg2d: Sum(rhs),rhsMax =  -1.00846225592477E-06  9.33354936903473E+00
 cg2d: Sum(rhs),rhsMax =  -1.00881101161576E-06  9.33032157616550E+00
 cg2d: Sum(rhs),rhsMax =  -1.00916516743155E-06  9.32705436968557E+00
 cg2d: Sum(rhs),rhsMax =  -1.00952331649751E-06  9.32374921338577E+00
 cg2d: Sum(rhs),rhsMax =  -1.00988531670509E-06  9.32040756144028E+00
 cg2d: Sum(rhs),rhsMax =  -1.01025127463572E-06  9.31703077224134E+00
 cg2d: Sum(rhs),rhsMax =  -1.01062164503674E-06  9.31362004706407E+00
 cg2d: Sum(rhs),rhsMax =  -1.01099536209404E-06  9.31017638277708E+00
 cg2d: Sum(rhs),rhsMax =  -4.57229916150936E-07  9.30670020686380E+00
 cg2d: Sum(rhs),rhsMax =   7.36832816983224E-12  3.58897742024511E-02
 cg2d: Sum(rhs),rhsMax =  -1.00846225592477E-06  9.33354936903473E+00
 cg2d: Sum(rhs),rhsMax =  -1.00881101161576E-06  9.33032157616550E+00
 cg2d: Sum(rhs),rhsMax =  -1.00916516743155E-06  9.32705436968557E+00
 cg2d: Sum(rhs),rhsMax =  -1.00952331649751E-06  9.32374921338577E+00
 cg2d: Sum(rhs),rhsMax =  -1.00988531670509E-06  9.32040756144028E+00
 cg2d: Sum(rhs),rhsMax =  -1.01025127463572E-06  9.31703077224134E+00
 cg2d: Sum(rhs),rhsMax =  -1.01062164503674E-06  9.31362004706407E+00
 cg2d: Sum(rhs),rhsMax =  -1.65941358432065E-06  9.31017637858063E+00
 cg2d: Sum(rhs),rhsMax =   7.31548155386008E-12  3.60562175161963E-02
 cg2d: Sum(rhs),rhsMax =  -1.00846225592477E-06  9.33354936903473E+00
 cg2d: Sum(rhs),rhsMax =  -1.00881101161576E-06  9.33032157616550E+00
 cg2d: Sum(rhs),rhsMax =  -1.00916516743155E-06  9.32705436968557E+00
 cg2d: Sum(rhs),rhsMax =  -1.00952331649751E-06  9.32374921338577E+00
 cg2d: Sum(rhs),rhsMax =  -1.00988531670509E-06  9.32040756144028E+00
 cg2d: Sum(rhs),rhsMax =  -1.01025127463572E-06  9.31703077224134E+00
 cg2d: Sum(rhs),rhsMax =  -8.67283930006124E-07  9.31362015641951E+00
 cg2d: Sum(rhs),rhsMax =   7.45337125351853E-12  3.57863553673040E-02
 cg2d: Sum(rhs),rhsMax =  -1.00846225592477E-06  9.33354936903473E+00
 cg2d: Sum(rhs),rhsMax =  -1.00881101161576E-06  9.33032157616550E+00
 cg2d: Sum(rhs),rhsMax =  -1.00916516743155E-06  9.32705436968557E+00
 cg2d: Sum(rhs),rhsMax =  -1.00952331649751E-06  9.32374921338577E+00
 cg2d: Sum(rhs),rhsMax =  -1.00988531670509E-06  9.32040756144028E+00
 cg2d: Sum(rhs),rhsMax =   4.74924632953844E-09  9.31703096899607E+00
 cg2d: Sum(rhs),rhsMax =   7.50488560186113E-12  3.54490372047972E-02
 cg2d: Sum(rhs),rhsMax =  -1.00846225592477E-06  9.33354936903473E+00
 cg2d: Sum(rhs),rhsMax =  -1.00881101161576E-06  9.33032157616550E+00
 cg2d: Sum(rhs),rhsMax =  -1.00916516743155E-06  9.32705436968557E+00
 cg2d: Sum(rhs),rhsMax =  -1.00952331649751E-06  9.32374921338577E+00
 cg2d: Sum(rhs),rhsMax =   8.25733465603662E-07  9.32040741347053E+00
 cg2d: Sum(rhs),rhsMax =   7.65965069149388E-12  3.51334190305486E-02
 cg2d: Sum(rhs),rhsMax =  -1.00846225592477E-06  9.33354936903473E+00
 cg2d: Sum(rhs),rhsMax =  -1.00881101161576E-06  9.33032157616550E+00
 cg2d: Sum(rhs),rhsMax =  -1.00916516743155E-06  9.32705436968557E+00
 cg2d: Sum(rhs),rhsMax =  -4.25234169654232E-07  9.32374957455209E+00
 cg2d: Sum(rhs),rhsMax =   7.72204522547781E-12  3.47873511672189E-02
 cg2d: Sum(rhs),rhsMax =  -1.00846225592477E-06  9.33354936903473E+00
 cg2d: Sum(rhs),rhsMax =  -1.00881101161576E-06  9.33032157616550E+00
 cg2d: Sum(rhs),rhsMax =  -4.87455949382820E-07  9.32705441547926E+00
 cg2d: Sum(rhs),rhsMax =   7.82507392216303E-12  3.43496610213798E-02
 cg2d: Sum(rhs),rhsMax =  -1.00846225592477E-06  9.33354936903473E+00
 cg2d: Sum(rhs),rhsMax =  -9.02347352393917E-07  9.33032182833426E+00
 cg2d: Sum(rhs),rhsMax =   8.02713451264481E-12  3.38288732626528E-02
 cg2d: Sum(rhs),rhsMax =  -1.00846219197592E-06  9.33354936834211E+00
 cg2d: Sum(rhs),rhsMax =   8.16968714900668E-12  3.32087660512614E-02
 cg2d: Sum(rhs),rhsMax =  -7.46576347410155E-08  9.50907671569018E+00
 cg2d: Sum(rhs),rhsMax =  -7.46636956705515E-08  9.50827538007810E+00
 cg2d: Sum(rhs),rhsMax =  -7.46696002806857E-08  9.50759038673436E+00
 cg2d: Sum(rhs),rhsMax =  -7.46738635371003E-08  9.50702164848735E+00
 cg2d: Sum(rhs),rhsMax =  -7.46774944104800E-08  9.50656668487862E+00
 cg2d: Sum(rhs),rhsMax =  -7.46800878914655E-08  9.50622069715104E+00
 cg2d: Sum(rhs),rhsMax =  -7.46821626762539E-08  9.50597670066013E+00
 cg2d: Sum(rhs),rhsMax =  -7.46832924392038E-08  9.50582571630982E+00
 cg2d: Sum(rhs),rhsMax =  -7.46840456145037E-08  9.50575700943737E+00
 cg2d: Sum(rhs),rhsMax =  -7.46835624454434E-08  9.50575837107225E+00
 cg2d: Sum(rhs),rhsMax =  -7.46833208609132E-08  9.50581645922263E+00
 cg2d: Sum(rhs),rhsMax =  -7.46821982033907E-08  9.50591711991761E+00
 cg2d: Sum(rhs),rhsMax =  -7.46813526575352E-08  9.50604571310823E+00
 cg2d: Sum(rhs),rhsMax =  -7.46798960449269E-08  9.50618745972881E+00
 cg2d: Sum(rhs),rhsMax =  -7.46791073424902E-08  9.50632780119137E+00
 cg2d: Sum(rhs),rhsMax =  -7.46779846849677E-08  9.50645275158785E+00
 cg2d: Sum(rhs),rhsMax =  -7.46776720461639E-08  9.50654922994562E+00
 cg2d: Sum(rhs),rhsMax =  -7.46771249282574E-08  9.50660536798306E+00
 cg2d: Sum(rhs),rhsMax =  -7.46771320336848E-08  9.50661078108177E+00
 cg2d: Sum(rhs),rhsMax =  -7.46778141547111E-08  9.50655679154863E+00
 cg2d: Sum(rhs),rhsMax =  -7.46784394323186E-08  9.50643658250018E+00
 cg2d: Sum(rhs),rhsMax =  -7.46802726325768E-08  9.50624530490270E+00
 cg2d: Sum(rhs),rhsMax =  -7.46821271491172E-08  9.50598009866199E+00
 cg2d: Sum(rhs),rhsMax =  -7.46850545851885E-08  9.50564005870858E+00
 cg2d: Sum(rhs),rhsMax =  -7.46883372926277E-08  9.50522619443621E+00
 cg2d: Sum(rhs),rhsMax =  -7.46918829008791E-08  9.50474133855045E+00
 cg2d: Sum(rhs),rhsMax =  -7.46962030007126E-08  9.50418990415982E+00
 cg2d: Sum(rhs),rhsMax =  -7.47013260138374E-08  9.50357767429962E+00
 cg2d: Sum(rhs),rhsMax =  -7.47062216532868E-08  9.50291163791579E+00
 cg2d: Sum(rhs),rhsMax =  -7.47126236433360E-08  9.50219980056318E+00
 cg2d: Sum(rhs),rhsMax =  -7.47184074612051E-08  9.50145094748729E+00
 cg2d: Sum(rhs),rhsMax =  -7.47247455024080E-08  9.50067438045622E+00
 cg2d: Sum(rhs),rhsMax =  -7.47313322335685E-08  9.49987965703835E+00
 cg2d: Sum(rhs),rhsMax =  -7.47377768561819E-08  9.49907634096511E+00
 cg2d: Sum(rhs),rhsMax =  -7.47441433190943E-08  9.49827377465974E+00
 cg2d: Sum(rhs),rhsMax =  -7.47505310982888E-08  9.49748086980356E+00
 cg2d: Sum(rhs),rhsMax =  -7.47569046666285E-08  9.49670591827534E+00
 cg2d: Sum(rhs),rhsMax =  -7.47627666441986E-08  9.49595642566026E+00
 cg2d: Sum(rhs),rhsMax =  -7.47686570434780E-08  9.49523896197083E+00
 cg2d: Sum(rhs),rhsMax =  -7.47742205930990E-08  9.49455904201468E+00
 cg2d: Sum(rhs),rhsMax =  -7.47793578170786E-08  9.49392104808525E+00
 cg2d: Sum(rhs),rhsMax =  -7.47843102999468E-08  9.49332815058320E+00
 cg2d: Sum(rhs),rhsMax =  -7.47889217223019E-08  9.49278226320107E+00
 cg2d: Sum(rhs),rhsMax =  -7.47930855027334E-08  9.49228403703651E+00
 cg2d: Sum(rhs),rhsMax =  -7.47963611047453E-08  9.49183288684206E+00
 cg2d: Sum(rhs),rhsMax =  -7.48000417161165E-08  9.49142705076112E+00
 cg2d: Sum(rhs),rhsMax =  -7.48029052033417E-08  9.49106366991647E+00
 cg2d: Sum(rhs),rhsMax =  -7.48058113231309E-08  9.49073888097194E+00
 cg2d: Sum(rhs),rhsMax =  -7.48079642676203E-08  9.49044792286002E+00
 cg2d: Sum(rhs),rhsMax =  -7.48104369563407E-08  9.49018527463466E+00
 EXTERNAL_FIELDS_LOAD, it=   3600330 : Reading new data, i0,i1=    6    7 (prev=    5    8 )
 DIC_FIELDS_LOAD, it=   3600330 : Reading new data, i0,i1=    6    7 (prev=    5    6 )
 cg2d: Sum(rhs),rhsMax =  -7.48125685845480E-08  9.48994481428126E+00
 cg2d: Sum(rhs),rhsMax =  -7.48145367879260E-08  9.48970977028949E+00
 cg2d: Sum(rhs),rhsMax =  -7.48167536812616E-08  9.48946667050908E+00
 cg2d: Sum(rhs),rhsMax =  -7.48186579357935E-08  9.48920195983684E+00
 cg2d: Sum(rhs),rhsMax =  -7.48212727330611E-08  9.48890231838115E+00
 cg2d: Sum(rhs),rhsMax =  -7.48240864822947E-08  9.48855490239494E+00
 cg2d: Sum(rhs),rhsMax =  -7.48277528828112E-08  9.48814760448955E+00
 cg2d: Sum(rhs),rhsMax =  -7.48317106058494E-08  9.48766929469714E+00
 cg2d: Sum(rhs),rhsMax =  -7.48361301816658E-08  9.48711003726197E+00
 cg2d: Sum(rhs),rhsMax =  -7.48412745110727E-08  9.48646127184076E+00
 cg2d: Sum(rhs),rhsMax =  -7.48473496514634E-08  9.48571598443359E+00
 cg2d: Sum(rhs),rhsMax =  -7.48540713857437E-08  9.48486884714226E+00
 cg2d: Sum(rhs),rhsMax =  -7.48618091961362E-08  9.48391631089758E+00
 cg2d: Sum(rhs),rhsMax =  -7.48703143926832E-08  9.48285664384895E+00
 cg2d: Sum(rhs),rhsMax =  -7.48790469629057E-08  9.48168991622247E+00
 cg2d: Sum(rhs),rhsMax =  -7.48895487845402E-08  9.48041794354397E+00
 cg2d: Sum(rhs),rhsMax =  -7.49003561395511E-08  9.47904418707887E+00
 cg2d: Sum(rhs),rhsMax =  -7.49121227272553E-08  9.47757361133926E+00
 cg2d: Sum(rhs),rhsMax =  -7.49249196019264E-08  9.47601250495736E+00
 cg2d: Sum(rhs),rhsMax =  -7.49377875308710E-08  9.47436827146146E+00
 cg2d: Sum(rhs),rhsMax =  -7.49514157405429E-08  9.47264919973884E+00
 cg2d: Sum(rhs),rhsMax =  -7.49656123844034E-08  9.47086422427234E+00
 cg2d: Sum(rhs),rhsMax =  -7.49802140376232E-08  9.46902267691356E+00
 cg2d: Sum(rhs),rhsMax =  -7.49953059653308E-08  9.46713403481286E+00
 cg2d: Sum(rhs),rhsMax =  -7.50105257907308E-08  9.46520767024855E+00
 cg2d: Sum(rhs),rhsMax =  -7.50263424720288E-08  9.46325259778073E+00
 cg2d: Sum(rhs),rhsMax =  -7.50422373130277E-08  9.46127726524814E+00
 cg2d: Sum(rhs),rhsMax =  -7.50577768826588E-08  9.45928937477588E+00
 cg2d: Sum(rhs),rhsMax =  -7.50738990973332E-08  9.45729571583441E+00
 cg2d: Sum(rhs),rhsMax =  -7.50896163026482E-08  9.45530206338839E+00
 cg2d: Sum(rhs),rhsMax =  -7.51056461467670E-08  9.45331309804778E+00
 cg2d: Sum(rhs),rhsMax =  -7.51212709815263E-08  9.45133234916556E+00
 cg2d: Sum(rhs),rhsMax =  -7.51373789853460E-08  9.44936217148271E+00
 cg2d: Sum(rhs),rhsMax =  -7.51527906572846E-08  9.44740375781686E+00
 cg2d: Sum(rhs),rhsMax =  -7.51685931277279E-08  9.44545718748645E+00
 cg2d: Sum(rhs),rhsMax =  -7.51841966462052E-08  9.44352151007986E+00
 cg2d: Sum(rhs),rhsMax =  -7.51994591041694E-08  9.44159486329961E+00
 cg2d: Sum(rhs),rhsMax =  -7.52147784055524E-08  9.43967460290015E+00
 cg2d: Sum(rhs),rhsMax =  -7.52305737705683E-08  9.43775744343237E+00
 cg2d: Sum(rhs),rhsMax =  -7.52457793851136E-08  9.43583960877673E+00
 cg2d: Sum(rhs),rhsMax =  -7.52614752741465E-08  9.43391698185443E+00
 cg2d: Sum(rhs),rhsMax =  -7.52768585243757E-08  9.43198524752366E+00
 cg2d: Sum(rhs),rhsMax =  -7.52925899405454E-08  9.43004003060471E+00
 cg2d: Sum(rhs),rhsMax =  -7.53084705706897E-08  9.42807701983885E+00
 cg2d: Sum(rhs),rhsMax =  -7.53246993667744E-08  9.42609207475689E+00
 cg2d: Sum(rhs),rhsMax =  -7.53408997411498E-08  9.42408132282525E+00
 cg2d: Sum(rhs),rhsMax =  -7.53572138023628E-08  9.42204124662806E+00
 cg2d: Sum(rhs),rhsMax =  -7.53741673520381E-08  9.41996876781019E+00
 cg2d: Sum(rhs),rhsMax =  -7.53910782691491E-08  9.41786131641806E+00
 cg2d: Sum(rhs),rhsMax =  -7.54086713072866E-08  9.41571688244791E+00
 cg2d: Sum(rhs),rhsMax =  -7.54266125113645E-08  9.41353407021840E+00
 cg2d: Sum(rhs),rhsMax =  -7.54444755557415E-08  9.41131216516102E+00
 cg2d: Sum(rhs),rhsMax =  -7.54630704591364E-08  9.40905115996980E+00
 cg2d: Sum(rhs),rhsMax =  -7.54816795733859E-08  9.40675174533744E+00
 cg2d: Sum(rhs),rhsMax =  -7.55005373775930E-08  9.40441527809810E+00
 cg2d: Sum(rhs),rhsMax =  -7.55200275648349E-08  9.40204373790542E+00
 cg2d: Sum(rhs),rhsMax =  -7.55398446017352E-08  9.39963967991296E+00
 cg2d: Sum(rhs),rhsMax =  -7.55594129486781E-08  9.39720618276624E+00
 cg2d: Sum(rhs),rhsMax =  -7.55797202600661E-08  9.39474678273504E+00
 cg2d: Sum(rhs),rhsMax =  -7.56002052071381E-08  9.39226540565015E+00
 EXTERNAL_FIELDS_LOAD, it=   3600390 : Reading new data, i0,i1=    7    8 (prev=    6    7 )
 DIC_FIELDS_LOAD, it=   3600390 : Reading new data, i0,i1=    7    8 (prev=    6    7 )
 cg2d: Sum(rhs),rhsMax =  -7.56204627805346E-08  9.38976628030644E+00
 cg2d: Sum(rhs),rhsMax =  -7.56415232672225E-08  9.38724775533259E+00
 cg2d: Sum(rhs),rhsMax =  -7.56618732111747E-08  9.38470942901966E+00
 cg2d: Sum(rhs),rhsMax =  -7.56830758064098E-08  9.38215030318780E+00
 cg2d: Sum(rhs),rhsMax =  -7.57043636667731E-08  9.37956883924381E+00
 cg2d: Sum(rhs),rhsMax =  -7.57257581085469E-08  9.37696305631202E+00
 cg2d: Sum(rhs),rhsMax =  -7.57472449208763E-08  9.37433065622099E+00
 cg2d: Sum(rhs),rhsMax =  -7.57689306851717E-08  9.37166915330181E+00
 cg2d: Sum(rhs),rhsMax =  -7.57913838356217E-08  9.36897600473142E+00
 cg2d: Sum(rhs),rhsMax =  -7.58139293566273E-08  9.36624871729081E+00
 cg2d: Sum(rhs),rhsMax =  -9.33863717023087E-07  9.36348521337134E+00
 cg2d: Sum(rhs),rhsMax =  -9.34143969288925E-07  9.36068288103523E+00
 cg2d: Sum(rhs),rhsMax =  -9.34428172172375E-07  9.35784019128033E+00
 cg2d: Sum(rhs),rhsMax =  -9.34716709366512E-07  9.35495570084001E+00
 cg2d: Sum(rhs),rhsMax =  -9.35009772717876E-07  9.35202835068542E+00
 cg2d: Sum(rhs),rhsMax =  -9.35307532756724E-07  9.34905746127832E+00
 cg2d: Sum(rhs),rhsMax =  -9.35609662633397E-07  9.34604270335900E+00
 cg2d: Sum(rhs),rhsMax =  -9.35916332878151E-07  9.34298407240453E+00
 cg2d: Sum(rhs),rhsMax =  -9.36227429804148E-07  9.33988188648907E+00
 cg2d: Sum(rhs),rhsMax =  -9.36543322893613E-07  9.33673678338045E+00
 cg2d: Sum(rhs),rhsMax =  -9.33863717023087E-07  9.36348521337134E+00
 cg2d: Sum(rhs),rhsMax =  -9.34143969288925E-07  9.36068288103523E+00
 cg2d: Sum(rhs),rhsMax =  -9.34428172172375E-07  9.35784019128033E+00
 cg2d: Sum(rhs),rhsMax =  -9.34716709366512E-07  9.35495570084001E+00
 cg2d: Sum(rhs),rhsMax =  -9.35009772717876E-07  9.35202835068542E+00
 cg2d: Sum(rhs),rhsMax =  -9.35307532756724E-07  9.34905746127832E+00
 cg2d: Sum(rhs),rhsMax =  -9.35609662633397E-07  9.34604270335900E+00
 cg2d: Sum(rhs),rhsMax =  -9.35916332878151E-07  9.34298407240453E+00
 cg2d: Sum(rhs),rhsMax =  -9.36227429804148E-07  9.33988188648907E+00
 cg2d: Sum(rhs),rhsMax =  -2.18596532874926E-07  9.33673675522518E+00
 cg2d: Sum(rhs),rhsMax =   8.37574454237711E-12  3.24938202150289E-02
 cg2d: Sum(rhs),rhsMax =  -9.33863717023087E-07  9.36348521337134E+00
 cg2d: Sum(rhs),rhsMax =  -9.34143969288925E-07  9.36068288103523E+00
 cg2d: Sum(rhs),rhsMax =  -9.34428172172375E-07  9.35784019128033E+00
 cg2d: Sum(rhs),rhsMax =  -9.34716709366512E-07  9.35495570084001E+00
 cg2d: Sum(rhs),rhsMax =  -9.35009772717876E-07  9.35202835068542E+00
 cg2d: Sum(rhs),rhsMax =  -9.35307532756724E-07  9.34905746127832E+00
 cg2d: Sum(rhs),rhsMax =  -9.35609662633397E-07  9.34604270335900E+00
 cg2d: Sum(rhs),rhsMax =  -9.35916332878151E-07  9.34298407240453E+00
 cg2d: Sum(rhs),rhsMax =  -2.69100323180282E-06  9.33988226846130E+00
 cg2d: Sum(rhs),rhsMax =   8.54671888816938E-12  3.19858648788666E-02
 cg2d: Sum(rhs),rhsMax =  -9.33863717023087E-07  9.36348521337134E+00
 cg2d: Sum(rhs),rhsMax =  -9.34143969288925E-07  9.36068288103523E+00
 cg2d: Sum(rhs),rhsMax =  -9.34428172172375E-07  9.35784019128033E+00
 cg2d: Sum(rhs),rhsMax =  -9.34716709366512E-07  9.35495570084001E+00
 cg2d: Sum(rhs),rhsMax =  -9.35009772717876E-07  9.35202835068542E+00
 cg2d: Sum(rhs),rhsMax =  -9.35307532756724E-07  9.34905746127832E+00
 cg2d: Sum(rhs),rhsMax =  -9.35609662633397E-07  9.34604270335900E+00
 cg2d: Sum(rhs),rhsMax =  -1.29634488388319E-06  9.34298400946351E+00
 cg2d: Sum(rhs),rhsMax =   8.62421245528822E-12  3.18522725305795E-02
 cg2d: Sum(rhs),rhsMax =  -9.33863717023087E-07  9.36348521337134E+00
 cg2d: Sum(rhs),rhsMax =  -9.34143969288925E-07  9.36068288103523E+00
 cg2d: Sum(rhs),rhsMax =  -9.34428172172375E-07  9.35784019128033E+00
 cg2d: Sum(rhs),rhsMax =  -9.34716709366512E-07  9.35495570084001E+00
 cg2d: Sum(rhs),rhsMax =  -9.35009772717876E-07  9.35202835068542E+00
 cg2d: Sum(rhs),rhsMax =  -9.35307532756724E-07  9.34905746127832E+00
 cg2d: Sum(rhs),rhsMax =  -1.32060555557700E-06  9.34604240444086E+00
 cg2d: Sum(rhs),rhsMax =   8.02224953133646E-12  3.45365640750772E-02
 cg2d: Sum(rhs),rhsMax =  -9.33863717023087E-07  9.36348521337134E+00
 cg2d: Sum(rhs),rhsMax =  -9.34143969288925E-07  9.36068288103523E+00
 cg2d: Sum(rhs),rhsMax =  -9.34428172172375E-07  9.35784019128033E+00
 cg2d: Sum(rhs),rhsMax =  -9.34716709366512E-07  9.35495570084001E+00
 cg2d: Sum(rhs),rhsMax =  -9.35009772717876E-07  9.35202835068542E+00
 cg2d: Sum(rhs),rhsMax =  -6.71870324708834E-07  9.34905711502346E+00
 cg2d: Sum(rhs),rhsMax =   7.88835663456666E-12  3.49171924286820E-02
 cg2d: Sum(rhs),rhsMax =  -9.33863717023087E-07  9.36348521337134E+00
 cg2d: Sum(rhs),rhsMax =  -9.34143969288925E-07  9.36068288103523E+00
 cg2d: Sum(rhs),rhsMax =  -9.34428172172375E-07  9.35784019128033E+00
 cg2d: Sum(rhs),rhsMax =  -9.34716709366512E-07  9.35495570084001E+00
 cg2d: Sum(rhs),rhsMax =  -1.07572382290755E-06  9.35202856346427E+00
 cg2d: Sum(rhs),rhsMax =   8.16502421230325E-12  3.40252024950617E-02
 cg2d: Sum(rhs),rhsMax =  -9.33863717023087E-07  9.36348521337134E+00
 cg2d: Sum(rhs),rhsMax =  -9.34143969288925E-07  9.36068288103523E+00
 cg2d: Sum(rhs),rhsMax =  -9.34428172172375E-07  9.35784019128033E+00
 cg2d: Sum(rhs),rhsMax =  -1.24828893888207E-06  9.35495561939226E+00
 cg2d: Sum(rhs),rhsMax =   8.48654480023470E-12  3.29298384403628E-02
 cg2d: Sum(rhs),rhsMax =  -9.33863717023087E-07  9.36348521337134E+00
 cg2d: Sum(rhs),rhsMax =  -9.34143969288925E-07  9.36068288103523E+00
 cg2d: Sum(rhs),rhsMax =  -2.03372527352030E-06  9.35784020280940E+00
 cg2d: Sum(rhs),rhsMax =   8.46811509802592E-12  3.31234831619174E-02
 cg2d: Sum(rhs),rhsMax =  -9.33863717023087E-07  9.36348521337134E+00
 cg2d: Sum(rhs),rhsMax =  -2.18863836920491E-06  9.36068273504197E+00
 cg2d: Sum(rhs),rhsMax =   8.45790104619937E-12  3.33617327589681E-02
 cg2d: Sum(rhs),rhsMax =  -9.33863958607617E-07  9.36348521333217E+00
 cg2d: Sum(rhs),rhsMax =   8.41970937415226E-12  3.34416088455000E-02
 cg2d: Sum(rhs),rhsMax =  -7.46576347410155E-08  9.50907671569018E+00
 cg2d: Sum(rhs),rhsMax =  -7.46636956705515E-08  9.50827538007810E+00
 cg2d: Sum(rhs),rhsMax =  -7.46696002806857E-08  9.50759038673436E+00
 cg2d: Sum(rhs),rhsMax =  -7.46738635371003E-08  9.50702164848735E+00
 cg2d: Sum(rhs),rhsMax =  -7.46774944104800E-08  9.50656668487862E+00
 cg2d: Sum(rhs),rhsMax =  -7.46800878914655E-08  9.50622069715104E+00
 cg2d: Sum(rhs),rhsMax =  -7.46821626762539E-08  9.50597670066013E+00
 cg2d: Sum(rhs),rhsMax =  -7.46832924392038E-08  9.50582571630982E+00
 cg2d: Sum(rhs),rhsMax =  -7.46840456145037E-08  9.50575700943737E+00
 cg2d: Sum(rhs),rhsMax =  -7.46835624454434E-08  9.50575837107225E+00
 cg2d: Sum(rhs),rhsMax =  -7.46833208609132E-08  9.50581645922263E+00
 cg2d: Sum(rhs),rhsMax =  -7.46821982033907E-08  9.50591711991761E+00
 cg2d: Sum(rhs),rhsMax =  -7.46813526575352E-08  9.50604571310823E+00
 cg2d: Sum(rhs),rhsMax =  -7.46798960449269E-08  9.50618745972881E+00
 cg2d: Sum(rhs),rhsMax =  -7.46791073424902E-08  9.50632780119137E+00
 cg2d: Sum(rhs),rhsMax =  -7.46779846849677E-08  9.50645275158785E+00
 cg2d: Sum(rhs),rhsMax =  -7.46776720461639E-08  9.50654922994562E+00
 cg2d: Sum(rhs),rhsMax =  -7.46771249282574E-08  9.50660536798306E+00
 cg2d: Sum(rhs),rhsMax =  -7.46771320336848E-08  9.50661078108177E+00
 cg2d: Sum(rhs),rhsMax =  -7.46778141547111E-08  9.50655679154863E+00
 cg2d: Sum(rhs),rhsMax =  -7.46784394323186E-08  9.50643658250018E+00
 cg2d: Sum(rhs),rhsMax =  -7.46802726325768E-08  9.50624530490270E+00
 cg2d: Sum(rhs),rhsMax =  -7.46821271491172E-08  9.50598009866199E+00
 cg2d: Sum(rhs),rhsMax =  -7.46850545851885E-08  9.50564005870858E+00
 cg2d: Sum(rhs),rhsMax =  -7.46883372926277E-08  9.50522619443621E+00
 cg2d: Sum(rhs),rhsMax =  -7.46918829008791E-08  9.50474133855045E+00
 cg2d: Sum(rhs),rhsMax =  -7.46962030007126E-08  9.50418990415982E+00
 cg2d: Sum(rhs),rhsMax =  -7.47013260138374E-08  9.50357767429962E+00
 cg2d: Sum(rhs),rhsMax =  -7.47062216532868E-08  9.50291163791579E+00
 cg2d: Sum(rhs),rhsMax =  -7.47126236433360E-08  9.50219980056318E+00
 cg2d: Sum(rhs),rhsMax =  -7.47184074612051E-08  9.50145094748729E+00
 cg2d: Sum(rhs),rhsMax =  -7.47247455024080E-08  9.50067438045622E+00
 cg2d: Sum(rhs),rhsMax =  -7.47313322335685E-08  9.49987965703835E+00
 cg2d: Sum(rhs),rhsMax =  -7.47377768561819E-08  9.49907634096511E+00
 cg2d: Sum(rhs),rhsMax =  -7.47441433190943E-08  9.49827377465974E+00
 cg2d: Sum(rhs),rhsMax =  -7.47505310982888E-08  9.49748086980356E+00
 cg2d: Sum(rhs),rhsMax =  -7.47569046666285E-08  9.49670591827534E+00
 cg2d: Sum(rhs),rhsMax =  -7.47627666441986E-08  9.49595642566026E+00
 cg2d: Sum(rhs),rhsMax =  -7.47686570434780E-08  9.49523896197083E+00
 cg2d: Sum(rhs),rhsMax =  -7.47742205930990E-08  9.49455904201468E+00
 cg2d: Sum(rhs),rhsMax =  -7.47793578170786E-08  9.49392104808525E+00
 cg2d: Sum(rhs),rhsMax =  -7.47843102999468E-08  9.49332815058320E+00
 cg2d: Sum(rhs),rhsMax =  -7.47889217223019E-08  9.49278226320107E+00
 cg2d: Sum(rhs),rhsMax =  -7.47930855027334E-08  9.49228403703651E+00
 cg2d: Sum(rhs),rhsMax =  -7.47963611047453E-08  9.49183288684206E+00
 cg2d: Sum(rhs),rhsMax =  -7.48000417161165E-08  9.49142705076112E+00
 cg2d: Sum(rhs),rhsMax =  -7.48029052033417E-08  9.49106366991647E+00
 cg2d: Sum(rhs),rhsMax =  -7.48058113231309E-08  9.49073888097194E+00
 cg2d: Sum(rhs),rhsMax =  -7.48079642676203E-08  9.49044792286002E+00
 cg2d: Sum(rhs),rhsMax =  -7.48104369563407E-08  9.49018527463466E+00
 EXTERNAL_FIELDS_LOAD, it=   3600330 : Reading new data, i0,i1=    6    7 (prev=    5    8 )
 DIC_FIELDS_LOAD, it=   3600330 : Reading new data, i0,i1=    6    7 (prev=    5    6 )
 cg2d: Sum(rhs),rhsMax =  -7.48125685845480E-08  9.48994481428126E+00
 cg2d: Sum(rhs),rhsMax =  -7.48145367879260E-08  9.48970977028949E+00
 cg2d: Sum(rhs),rhsMax =  -7.48167536812616E-08  9.48946667050908E+00
 cg2d: Sum(rhs),rhsMax =  -7.48186579357935E-08  9.48920195983684E+00
 cg2d: Sum(rhs),rhsMax =  -7.48212727330611E-08  9.48890231838115E+00
 cg2d: Sum(rhs),rhsMax =  -7.48240864822947E-08  9.48855490239494E+00
 cg2d: Sum(rhs),rhsMax =  -7.48277528828112E-08  9.48814760448955E+00
 cg2d: Sum(rhs),rhsMax =  -7.48317106058494E-08  9.48766929469714E+00
 cg2d: Sum(rhs),rhsMax =  -7.48361301816658E-08  9.48711003726197E+00
 cg2d: Sum(rhs),rhsMax =  -7.48412745110727E-08  9.48646127184076E+00
 cg2d: Sum(rhs),rhsMax =  -7.48473496514634E-08  9.48571598443359E+00
 cg2d: Sum(rhs),rhsMax =  -7.48540713857437E-08  9.48486884714226E+00
 cg2d: Sum(rhs),rhsMax =  -7.48618091961362E-08  9.48391631089758E+00
 cg2d: Sum(rhs),rhsMax =  -7.48703143926832E-08  9.48285664384895E+00
 cg2d: Sum(rhs),rhsMax =  -7.48790469629057E-08  9.48168991622247E+00
 cg2d: Sum(rhs),rhsMax =  -7.48895487845402E-08  9.48041794354397E+00
 cg2d: Sum(rhs),rhsMax =  -7.49003561395511E-08  9.47904418707887E+00
 cg2d: Sum(rhs),rhsMax =  -7.49121227272553E-08  9.47757361133926E+00
 cg2d: Sum(rhs),rhsMax =  -7.49249196019264E-08  9.47601250495736E+00
 cg2d: Sum(rhs),rhsMax =  -7.49377875308710E-08  9.47436827146146E+00
 cg2d: Sum(rhs),rhsMax =  -7.49514157405429E-08  9.47264919973884E+00
 cg2d: Sum(rhs),rhsMax =  -7.49656123844034E-08  9.47086422427234E+00
 cg2d: Sum(rhs),rhsMax =  -7.49802140376232E-08  9.46902267691356E+00
 cg2d: Sum(rhs),rhsMax =  -7.49953059653308E-08  9.46713403481286E+00
 cg2d: Sum(rhs),rhsMax =  -7.50105257907308E-08  9.46520767024855E+00
 cg2d: Sum(rhs),rhsMax =  -7.50263424720288E-08  9.46325259778073E+00
 cg2d: Sum(rhs),rhsMax =  -7.50422373130277E-08  9.46127726524814E+00
 cg2d: Sum(rhs),rhsMax =  -7.50577768826588E-08  9.45928937477588E+00
 cg2d: Sum(rhs),rhsMax =  -7.50738990973332E-08  9.45729571583441E+00
 cg2d: Sum(rhs),rhsMax =  -7.50896163026482E-08  9.45530206338839E+00
 cg2d: Sum(rhs),rhsMax =  -7.51056461467670E-08  9.45331309804778E+00
 cg2d: Sum(rhs),rhsMax =  -7.51212709815263E-08  9.45133234916556E+00
 cg2d: Sum(rhs),rhsMax =  -7.51373789853460E-08  9.44936217148271E+00
 cg2d: Sum(rhs),rhsMax =  -7.51527906572846E-08  9.44740375781686E+00
 cg2d: Sum(rhs),rhsMax =  -7.51685931277279E-08  9.44545718748645E+00
 cg2d: Sum(rhs),rhsMax =  -7.51841966462052E-08  9.44352151007986E+00
 cg2d: Sum(rhs),rhsMax =  -7.51994591041694E-08  9.44159486329961E+00
 cg2d: Sum(rhs),rhsMax =  -7.52147784055524E-08  9.43967460290015E+00
 cg2d: Sum(rhs),rhsMax =  -7.52305737705683E-08  9.43775744343237E+00
 cg2d: Sum(rhs),rhsMax =  -7.52457793851136E-08  9.43583960877673E+00
 cg2d: Sum(rhs),rhsMax =  -7.52614752741465E-08  9.43391698185443E+00
 cg2d: Sum(rhs),rhsMax =  -7.52768585243757E-08  9.43198524752366E+00
 cg2d: Sum(rhs),rhsMax =  -7.52925899405454E-08  9.43004003060471E+00
 cg2d: Sum(rhs),rhsMax =  -7.53084705706897E-08  9.42807701983885E+00
 cg2d: Sum(rhs),rhsMax =  -7.53246993667744E-08  9.42609207475689E+00
 cg2d: Sum(rhs),rhsMax =  -7.53408997411498E-08  9.42408132282525E+00
 cg2d: Sum(rhs),rhsMax =  -7.53572138023628E-08  9.42204124662806E+00
 cg2d: Sum(rhs),rhsMax =  -7.53741673520381E-08  9.41996876781019E+00
 cg2d: Sum(rhs),rhsMax =  -7.53910782691491E-08  9.41786131641806E+00
 cg2d: Sum(rhs),rhsMax =  -7.54086713072866E-08  9.41571688244791E+00
 cg2d: Sum(rhs),rhsMax =  -7.54266125113645E-08  9.41353407021840E+00
 cg2d: Sum(rhs),rhsMax =  -7.54444755557415E-08  9.41131216516102E+00
 cg2d: Sum(rhs),rhsMax =  -7.54630704591364E-08  9.40905115996980E+00
 cg2d: Sum(rhs),rhsMax =  -7.54816795733859E-08  9.40675174533744E+00
 cg2d: Sum(rhs),rhsMax =  -7.55005373775930E-08  9.40441527809810E+00
 cg2d: Sum(rhs),rhsMax =  -7.55200275648349E-08  9.40204373790542E+00
 cg2d: Sum(rhs),rhsMax =  -7.55398446017352E-08  9.39963967991296E+00
 cg2d: Sum(rhs),rhsMax =  -7.55594129486781E-08  9.39720618276624E+00
 cg2d: Sum(rhs),rhsMax =  -7.55797202600661E-08  9.39474678273504E+00
 cg2d: Sum(rhs),rhsMax =  -7.56002052071381E-08  9.39226540565015E+00
 EXTERNAL_FIELDS_LOAD, it=   3600390 : Reading new data, i0,i1=    7    8 (prev=    6    7 )
 DIC_FIELDS_LOAD, it=   3600390 : Reading new data, i0,i1=    7    8 (prev=    6    7 )
 cg2d: Sum(rhs),rhsMax =   1.09535568526553E-06  9.38976605990352E+00
 cg2d: Sum(rhs),rhsMax =   1.09564902572856E-06  9.38724753953757E+00
 cg2d: Sum(rhs),rhsMax =   1.09594484598574E-06  9.38470923917564E+00
 cg2d: Sum(rhs),rhsMax =   1.09624347288673E-06  9.38215017180888E+00
 cg2d: Sum(rhs),rhsMax =   1.09654493485323E-06  9.37956879557122E+00
 cg2d: Sum(rhs),rhsMax =   1.09684938109922E-06  9.37696311713405E+00
 cg2d: Sum(rhs),rhsMax =   1.09715676899214E-06  9.37433082476061E+00
 cg2d: Sum(rhs),rhsMax =   1.09746791565613E-06  9.37166942289208E+00
 cg2d: Sum(rhs),rhsMax =   1.09778303425401E-06  9.36897636358976E+00
 cg2d: Sum(rhs),rhsMax =   1.09810219584006E-06  9.36624915245159E+00
 EXTERNAL_FIELDS_LOAD, it=   3600390 : Reading new data, i0,i1=    7    8 (prev=    6    8 )
 DIC_FIELDS_LOAD, it=   3600390 : Reading new data, i0,i1=    7    8 (prev=    6    7 )
 cg2d: Sum(rhs),rhsMax =   1.09535568526553E-06  9.38976605990352E+00
 cg2d: Sum(rhs),rhsMax =   1.09564902572856E-06  9.38724753953757E+00
 cg2d: Sum(rhs),rhsMax =   1.09594484598574E-06  9.38470923917564E+00
 cg2d: Sum(rhs),rhsMax =   1.09624347288673E-06  9.38215017180888E+00
 cg2d: Sum(rhs),rhsMax =   1.09654493485323E-06  9.37956879557122E+00
 cg2d: Sum(rhs),rhsMax =   1.09684938109922E-06  9.37696311713405E+00
 cg2d: Sum(rhs),rhsMax =   1.09715676899214E-06  9.37433082476061E+00
 cg2d: Sum(rhs),rhsMax =   1.09746791565613E-06  9.37166942289208E+00
 cg2d: Sum(rhs),rhsMax =   1.09778303425401E-06  9.36897636358976E+00
 cg2d: Sum(rhs),rhsMax =   1.87212567936967E-06  9.36624900213866E+00
 cg2d: Sum(rhs),rhsMax =   8.44213587924969E-12  3.34000252884111E-02
 EXTERNAL_FIELDS_LOAD, it=   3600390 : Reading new data, i0,i1=    7    8 (prev=    6    8 )
 DIC_FIELDS_LOAD, it=   3600390 : Reading new data, i0,i1=    7    8 (prev=    6    7 )
 cg2d: Sum(rhs),rhsMax =   1.09535568526553E-06  9.38976605990352E+00
 cg2d: Sum(rhs),rhsMax =   1.09564902572856E-06  9.38724753953757E+00
 cg2d: Sum(rhs),rhsMax =   1.09594484598574E-06  9.38470923917564E+00
 cg2d: Sum(rhs),rhsMax =   1.09624347288673E-06  9.38215017180888E+00
 cg2d: Sum(rhs),rhsMax =   1.09654493485323E-06  9.37956879557122E+00
 cg2d: Sum(rhs),rhsMax =   1.09684938109922E-06  9.37696311713405E+00
 cg2d: Sum(rhs),rhsMax =   1.09715676899214E-06  9.37433082476061E+00
 cg2d: Sum(rhs),rhsMax =   1.09746791565613E-06  9.37166942289208E+00
 cg2d: Sum(rhs),rhsMax =   1.53880916542448E-06  9.36897607341159E+00
 cg2d: Sum(rhs),rhsMax =   8.48432435418545E-12  3.32666913658646E-02
 EXTERNAL_FIELDS_LOAD, it=   3600390 : Reading new data, i0,i1=    7    8 (prev=    6    8 )
 DIC_FIELDS_LOAD, it=   3600390 : Reading new data, i0,i1=    7    8 (prev=    6    7 )
 cg2d: Sum(rhs),rhsMax =   1.09535568526553E-06  9.38976605990352E+00
 cg2d: Sum(rhs),rhsMax =   1.09564902572856E-06  9.38724753953757E+00
 cg2d: Sum(rhs),rhsMax =   1.09594484598574E-06  9.38470923917564E+00
 cg2d: Sum(rhs),rhsMax =   1.09624347288673E-06  9.38215017180888E+00
 cg2d: Sum(rhs),rhsMax =   1.09654493485323E-06  9.37956879557122E+00
 cg2d: Sum(rhs),rhsMax =   1.09684938109922E-06  9.37696311713405E+00
 cg2d: Sum(rhs),rhsMax =   1.09715676899214E-06  9.37433082476061E+00
 cg2d: Sum(rhs),rhsMax =   1.13460014006250E-06  9.37166949773119E+00
 cg2d: Sum(rhs),rhsMax =   8.62332427686852E-12  3.30112707131363E-02
 EXTERNAL_FIELDS_LOAD, it=   3600390 : Reading new data, i0,i1=    7    8 (prev=    6    8 )
 DIC_FIELDS_LOAD, it=   3600390 : Reading new data, i0,i1=    7    8 (prev=    6    7 )
 cg2d: Sum(rhs),rhsMax =   1.09535568526553E-06  9.38976605990352E+00
 cg2d: Sum(rhs),rhsMax =   1.09564902572856E-06  9.38724753953757E+00
 cg2d: Sum(rhs),rhsMax =   1.09594484598574E-06  9.38470923917564E+00
 cg2d: Sum(rhs),rhsMax =   1.09624347288673E-06  9.38215017180888E+00
 cg2d: Sum(rhs),rhsMax =   1.09654493485323E-06  9.37956879557122E+00
 cg2d: Sum(rhs),rhsMax =   1.09684938109922E-06  9.37696311713405E+00
 cg2d: Sum(rhs),rhsMax =   1.37843718306385E-06  9.37433084904476E+00
 cg2d: Sum(rhs),rhsMax =   8.78941364135244E-12  3.26211451082715E-02
 EXTERNAL_FIELDS_LOAD, it=   3600390 : Reading new data, i0,i1=    7    8 (prev=    6    8 )
 DIC_FIELDS_LOAD, it=   3600390 : Reading new data, i0,i1=    7    8 (prev=    6    7 )
 cg2d: Sum(rhs),rhsMax =   1.09535568526553E-06  9.38976605990352E+00
 cg2d: Sum(rhs),rhsMax =   1.09564902572856E-06  9.38724753953757E+00
 cg2d: Sum(rhs),rhsMax =   1.09594484598574E-06  9.38470923917564E+00
 cg2d: Sum(rhs),rhsMax =   1.09624347288673E-06  9.38215017180888E+00
 cg2d: Sum(rhs),rhsMax =   1.09654493485323E-06  9.37956879557122E+00
 cg2d: Sum(rhs),rhsMax =   2.25843386658653E-07  9.37696333743612E+00
 cg2d: Sum(rhs),rhsMax =   8.74056382826893E-12  3.28985985905725E-02
 EXTERNAL_FIELDS_LOAD, it=   3600390 : Reading new data, i0,i1=    7    8 (prev=    6    8 )
 DIC_FIELDS_LOAD, it=   3600390 : Reading new data, i0,i1=    7    8 (prev=    6    7 )
 cg2d: Sum(rhs),rhsMax =   1.09535568526553E-06  9.38976605990352E+00
 cg2d: Sum(rhs),rhsMax =   1.09564902572856E-06  9.38724753953757E+00
 cg2d: Sum(rhs),rhsMax =   1.09594484598574E-06  9.38470923917564E+00
 cg2d: Sum(rhs),rhsMax =   1.09624347288673E-06  9.38215017180888E+00
 cg2d: Sum(rhs),rhsMax =   4.33891422346733E-07  9.37956878148174E+00
 cg2d: Sum(rhs),rhsMax =   8.45501446633534E-12  3.37836749872866E-02
 EXTERNAL_FIELDS_LOAD, it=   3600390 : Reading new data, i0,i1=    7    8 (prev=    6    8 )
 DIC_FIELDS_LOAD, it=   3600390 : Reading new data, i0,i1=    7    8 (prev=    6    7 )
 cg2d: Sum(rhs),rhsMax =   1.09535568526553E-06  9.38976605990352E+00
 cg2d: Sum(rhs),rhsMax =   1.09564902572856E-06  9.38724753953757E+00
 cg2d: Sum(rhs),rhsMax =   1.09594484598574E-06  9.38470923917564E+00
 cg2d: Sum(rhs),rhsMax =   1.14387682970118E-06  9.38214986983606E+00
 cg2d: Sum(rhs),rhsMax =   7.95585819446387E-12  3.60610448193419E-02
 EXTERNAL_FIELDS_LOAD, it=   3600390 : Reading new data, i0,i1=    7    8 (prev=    6    8 )
 DIC_FIELDS_LOAD, it=   3600390 : Reading new data, i0,i1=    7    8 (prev=    6    7 )
 cg2d: Sum(rhs),rhsMax =   1.09535568526553E-06  9.38976605990352E+00
 cg2d: Sum(rhs),rhsMax =   1.09564902572856E-06  9.38724753953757E+00
 cg2d: Sum(rhs),rhsMax =   9.04714717364641E-07  9.38470939826306E+00
 cg2d: Sum(rhs),rhsMax =   7.85838061290178E-12  3.66514581968814E-02
 EXTERNAL_FIELDS_LOAD, it=   3600390 : Reading new data, i0,i1=    7    8 (prev=    6    8 )
 DIC_FIELDS_LOAD, it=   3600390 : Reading new data, i0,i1=    7    8 (prev=    6    7 )
 cg2d: Sum(rhs),rhsMax =   1.09535568526553E-06  9.38976605990352E+00
 cg2d: Sum(rhs),rhsMax =   7.04323852573907E-08  9.38724716165662E+00
 cg2d: Sum(rhs),rhsMax =   8.24318391323686E-12  3.51212002157193E-02
 EXTERNAL_FIELDS_LOAD, it=   3600390 : Reading new data, i0,i1=    7    8 (prev=    6    8 )
 DIC_FIELDS_LOAD, it=   3600390 : Reading new data, i0,i1=    7    8 (prev=    6    7 )
 cg2d: Sum(rhs),rhsMax =   1.09535540815386E-06  9.38976605921311E+00
 cg2d: Sum(rhs),rhsMax =   8.51096970677645E-12  3.41003401799976E-02
 cg2d: Sum(rhs),rhsMax =  -7.46576347410155E-08  9.50907671569018E+00
 cg2d: Sum(rhs),rhsMax =  -7.46636956705515E-08  9.50827538007810E+00
 cg2d: Sum(rhs),rhsMax =  -7.46696002806857E-08  9.50759038673436E+00
 cg2d: Sum(rhs),rhsMax =  -7.46738635371003E-08  9.50702164848735E+00
 cg2d: Sum(rhs),rhsMax =  -7.46774944104800E-08  9.50656668487862E+00
 cg2d: Sum(rhs),rhsMax =  -7.46800878914655E-08  9.50622069715104E+00
 cg2d: Sum(rhs),rhsMax =  -7.46821626762539E-08  9.50597670066013E+00
 cg2d: Sum(rhs),rhsMax =  -7.46832924392038E-08  9.50582571630982E+00
 cg2d: Sum(rhs),rhsMax =  -7.46840456145037E-08  9.50575700943737E+00
 cg2d: Sum(rhs),rhsMax =  -7.46835624454434E-08  9.50575837107225E+00
 cg2d: Sum(rhs),rhsMax =  -7.46833208609132E-08  9.50581645922263E+00
 cg2d: Sum(rhs),rhsMax =  -7.46821982033907E-08  9.50591711991761E+00
 cg2d: Sum(rhs),rhsMax =  -7.46813526575352E-08  9.50604571310823E+00
 cg2d: Sum(rhs),rhsMax =  -7.46798960449269E-08  9.50618745972881E+00
 cg2d: Sum(rhs),rhsMax =  -7.46791073424902E-08  9.50632780119137E+00
 cg2d: Sum(rhs),rhsMax =  -7.46779846849677E-08  9.50645275158785E+00
 cg2d: Sum(rhs),rhsMax =  -7.46776720461639E-08  9.50654922994562E+00
 cg2d: Sum(rhs),rhsMax =  -7.46771249282574E-08  9.50660536798306E+00
 cg2d: Sum(rhs),rhsMax =  -7.46771320336848E-08  9.50661078108177E+00
 cg2d: Sum(rhs),rhsMax =  -7.46778141547111E-08  9.50655679154863E+00
 cg2d: Sum(rhs),rhsMax =  -7.46784394323186E-08  9.50643658250018E+00
 cg2d: Sum(rhs),rhsMax =  -7.46802726325768E-08  9.50624530490270E+00
 cg2d: Sum(rhs),rhsMax =  -7.46821271491172E-08  9.50598009866199E+00
 cg2d: Sum(rhs),rhsMax =  -7.46850545851885E-08  9.50564005870858E+00
 cg2d: Sum(rhs),rhsMax =  -7.46883372926277E-08  9.50522619443621E+00
 cg2d: Sum(rhs),rhsMax =  -7.46918829008791E-08  9.50474133855045E+00
 cg2d: Sum(rhs),rhsMax =  -7.46962030007126E-08  9.50418990415982E+00
 cg2d: Sum(rhs),rhsMax =  -7.47013260138374E-08  9.50357767429962E+00
 cg2d: Sum(rhs),rhsMax =  -7.47062216532868E-08  9.50291163791579E+00
 cg2d: Sum(rhs),rhsMax =  -7.47126236433360E-08  9.50219980056318E+00
 cg2d: Sum(rhs),rhsMax =  -7.47184074612051E-08  9.50145094748729E+00
 cg2d: Sum(rhs),rhsMax =  -7.47247455024080E-08  9.50067438045622E+00
 cg2d: Sum(rhs),rhsMax =  -7.47313322335685E-08  9.49987965703835E+00
 cg2d: Sum(rhs),rhsMax =  -7.47377768561819E-08  9.49907634096511E+00
 cg2d: Sum(rhs),rhsMax =  -7.47441433190943E-08  9.49827377465974E+00
 cg2d: Sum(rhs),rhsMax =  -7.47505310982888E-08  9.49748086980356E+00
 cg2d: Sum(rhs),rhsMax =  -7.47569046666285E-08  9.49670591827534E+00
 cg2d: Sum(rhs),rhsMax =  -7.47627666441986E-08  9.49595642566026E+00
 cg2d: Sum(rhs),rhsMax =  -7.47686570434780E-08  9.49523896197083E+00
 cg2d: Sum(rhs),rhsMax =  -7.47742205930990E-08  9.49455904201468E+00
 cg2d: Sum(rhs),rhsMax =  -7.47793578170786E-08  9.49392104808525E+00
 cg2d: Sum(rhs),rhsMax =  -7.47843102999468E-08  9.49332815058320E+00
 cg2d: Sum(rhs),rhsMax =  -7.47889217223019E-08  9.49278226320107E+00
 cg2d: Sum(rhs),rhsMax =  -7.47930855027334E-08  9.49228403703651E+00
 cg2d: Sum(rhs),rhsMax =  -7.47963611047453E-08  9.49183288684206E+00
 cg2d: Sum(rhs),rhsMax =  -7.48000417161165E-08  9.49142705076112E+00
 cg2d: Sum(rhs),rhsMax =  -7.48029052033417E-08  9.49106366991647E+00
 cg2d: Sum(rhs),rhsMax =  -7.48058113231309E-08  9.49073888097194E+00
 cg2d: Sum(rhs),rhsMax =  -7.48079642676203E-08  9.49044792286002E+00
 cg2d: Sum(rhs),rhsMax =  -7.48104369563407E-08  9.49018527463466E+00
 EXTERNAL_FIELDS_LOAD, it=   3600330 : Reading new data, i0,i1=    6    7 (prev=    5    8 )
 DIC_FIELDS_LOAD, it=   3600330 : Reading new data, i0,i1=    6    7 (prev=    5    6 )
 cg2d: Sum(rhs),rhsMax =  -7.48125685845480E-08  9.48994481428126E+00
 cg2d: Sum(rhs),rhsMax =  -7.48145367879260E-08  9.48970977028949E+00
 cg2d: Sum(rhs),rhsMax =  -7.48167536812616E-08  9.48946667050908E+00
 cg2d: Sum(rhs),rhsMax =  -7.48186579357935E-08  9.48920195983684E+00
 cg2d: Sum(rhs),rhsMax =  -7.48212727330611E-08  9.48890231838115E+00
 cg2d: Sum(rhs),rhsMax =  -7.48240864822947E-08  9.48855490239494E+00
 cg2d: Sum(rhs),rhsMax =  -7.48277528828112E-08  9.48814760448955E+00
 cg2d: Sum(rhs),rhsMax =  -7.48317106058494E-08  9.48766929469714E+00
 cg2d: Sum(rhs),rhsMax =  -7.48361301816658E-08  9.48711003726197E+00
 cg2d: Sum(rhs),rhsMax =  -7.48412745110727E-08  9.48646127184076E+00
 cg2d: Sum(rhs),rhsMax =  -7.48473496514634E-08  9.48571598443359E+00
 cg2d: Sum(rhs),rhsMax =  -7.48540713857437E-08  9.48486884714226E+00
 cg2d: Sum(rhs),rhsMax =  -7.48618091961362E-08  9.48391631089758E+00
 cg2d: Sum(rhs),rhsMax =  -7.48703143926832E-08  9.48285664384895E+00
 cg2d: Sum(rhs),rhsMax =  -7.48790469629057E-08  9.48168991622247E+00
 cg2d: Sum(rhs),rhsMax =  -7.48895487845402E-08  9.48041794354397E+00
 cg2d: Sum(rhs),rhsMax =  -7.49003561395511E-08  9.47904418707887E+00
 cg2d: Sum(rhs),rhsMax =  -7.49121227272553E-08  9.47757361133926E+00
 cg2d: Sum(rhs),rhsMax =  -7.49249196019264E-08  9.47601250495736E+00
 cg2d: Sum(rhs),rhsMax =  -7.49377875308710E-08  9.47436827146146E+00
 cg2d: Sum(rhs),rhsMax =  -7.49514157405429E-08  9.47264919973884E+00
 cg2d: Sum(rhs),rhsMax =  -7.49656123844034E-08  9.47086422427234E+00
 cg2d: Sum(rhs),rhsMax =  -7.49802140376232E-08  9.46902267691356E+00
 cg2d: Sum(rhs),rhsMax =  -7.49953059653308E-08  9.46713403481286E+00
 cg2d: Sum(rhs),rhsMax =  -7.50105257907308E-08  9.46520767024855E+00
 cg2d: Sum(rhs),rhsMax =  -7.50263424720288E-08  9.46325259778073E+00
 cg2d: Sum(rhs),rhsMax =  -7.50422373130277E-08  9.46127726524814E+00
 cg2d: Sum(rhs),rhsMax =  -7.50577768826588E-08  9.45928937477588E+00
 cg2d: Sum(rhs),rhsMax =  -7.50738990973332E-08  9.45729571583441E+00
 cg2d: Sum(rhs),rhsMax =  -7.50896163026482E-08  9.45530206338839E+00
 cg2d: Sum(rhs),rhsMax =  -7.51056461467670E-08  9.45331309804778E+00
 cg2d: Sum(rhs),rhsMax =  -7.51212709815263E-08  9.45133234916556E+00
 cg2d: Sum(rhs),rhsMax =  -7.51373789853460E-08  9.44936217148271E+00
 cg2d: Sum(rhs),rhsMax =  -7.51527906572846E-08  9.44740375781686E+00
 cg2d: Sum(rhs),rhsMax =  -7.51685931277279E-08  9.44545718748645E+00
 cg2d: Sum(rhs),rhsMax =  -7.51841966462052E-08  9.44352151007986E+00
 cg2d: Sum(rhs),rhsMax =  -7.51994591041694E-08  9.44159486329961E+00
 cg2d: Sum(rhs),rhsMax =  -7.52147784055524E-08  9.43967460290015E+00
 cg2d: Sum(rhs),rhsMax =  -7.52305737705683E-08  9.43775744343237E+00
 cg2d: Sum(rhs),rhsMax =  -7.52457793851136E-08  9.43583960877673E+00
 cg2d: Sum(rhs),rhsMax =  -7.52614752741465E-08  9.43391698185443E+00
 cg2d: Sum(rhs),rhsMax =  -7.52768585243757E-08  9.43198524752366E+00
 cg2d: Sum(rhs),rhsMax =  -7.52925899405454E-08  9.43004003060471E+00
 cg2d: Sum(rhs),rhsMax =  -7.53084705706897E-08  9.42807701983885E+00
 cg2d: Sum(rhs),rhsMax =  -7.53246993667744E-08  9.42609207475689E+00
 cg2d: Sum(rhs),rhsMax =  -7.53408997411498E-08  9.42408132282525E+00
 cg2d: Sum(rhs),rhsMax =  -7.53572138023628E-08  9.42204124662806E+00
 cg2d: Sum(rhs),rhsMax =  -7.53741673520381E-08  9.41996876781019E+00
 cg2d: Sum(rhs),rhsMax =  -7.53910782691491E-08  9.41786131641806E+00
 cg2d: Sum(rhs),rhsMax =  -7.54086713072866E-08  9.41571688244791E+00
 cg2d: Sum(rhs),rhsMax =  -1.23131694351741E-06  9.41353444383216E+00
 cg2d: Sum(rhs),rhsMax =  -1.23160828735536E-06  9.41131252104942E+00
 cg2d: Sum(rhs),rhsMax =  -1.23190415735053E-06  9.40905149300629E+00
 cg2d: Sum(rhs),rhsMax =  -1.23220580405814E-06  9.40675205526348E+00
 cg2d: Sum(rhs),rhsMax =  -1.23251201245012E-06  9.40441557017307E+00
 cg2d: Sum(rhs),rhsMax =  -1.23282314490325E-06  9.40204402384633E+00
 cg2d: Sum(rhs),rhsMax =  -1.23313902378186E-06  9.39963997843657E+00
 cg2d: Sum(rhs),rhsMax =  -1.23345854063928E-06  9.39720651881988E+00
 cg2d: Sum(rhs),rhsMax =  -1.23378142546926E-06  9.39474718519795E+00
 cg2d: Sum(rhs),rhsMax =  -1.23410788432921E-06  9.39226590405814E+00
 cg2d: Sum(rhs),rhsMax =  -1.23131694351741E-06  9.41353444383216E+00
 cg2d: Sum(rhs),rhsMax =  -1.23160828735536E-06  9.41131252104942E+00
 cg2d: Sum(rhs),rhsMax =  -1.23190415735053E-06  9.40905149300629E+00
 cg2d: Sum(rhs),rhsMax =  -1.23220580405814E-06  9.40675205526348E+00
 cg2d: Sum(rhs),rhsMax =  -1.23251201245012E-06  9.40441557017307E+00
 cg2d: Sum(rhs),rhsMax =  -1.23282314490325E-06  9.40204402384633E+00
 cg2d: Sum(rhs),rhsMax =  -1.23313902378186E-06  9.39963997843657E+00
 cg2d: Sum(rhs),rhsMax =  -1.23345854063928E-06  9.39720651881988E+00
 cg2d: Sum(rhs),rhsMax =  -1.23378142546926E-06  9.39474718519795E+00
 cg2d: Sum(rhs),rhsMax =  -1.34423558506569E-06  9.39226577154066E+00
 cg2d: Sum(rhs),rhsMax =   8.44724290516297E-12  3.45051520023712E-02
 cg2d: Sum(rhs),rhsMax =  -1.23131694351741E-06  9.41353444383216E+00
 cg2d: Sum(rhs),rhsMax =  -1.23160828735536E-06  9.41131252104942E+00
 cg2d: Sum(rhs),rhsMax =  -1.23190415735053E-06  9.40905149300629E+00
 cg2d: Sum(rhs),rhsMax =  -1.23220580405814E-06  9.40675205526348E+00
 cg2d: Sum(rhs),rhsMax =  -1.23251201245012E-06  9.40441557017307E+00
 cg2d: Sum(rhs),rhsMax =  -1.23282314490325E-06  9.40204402384633E+00
 cg2d: Sum(rhs),rhsMax =  -1.23313902378186E-06  9.39963997843657E+00
 cg2d: Sum(rhs),rhsMax =  -1.23345854063928E-06  9.39720651881988E+00
 cg2d: Sum(rhs),rhsMax =  -1.86696297532762E-06  9.39474734295942E+00
 cg2d: Sum(rhs),rhsMax =   8.50497450244347E-12  3.41891622563800E-02
 cg2d: Sum(rhs),rhsMax =  -1.23131694351741E-06  9.41353444383216E+00
 cg2d: Sum(rhs),rhsMax =  -1.23160828735536E-06  9.41131252104942E+00
 cg2d: Sum(rhs),rhsMax =  -1.23190415735053E-06  9.40905149300629E+00
 cg2d: Sum(rhs),rhsMax =  -1.23220580405814E-06  9.40675205526348E+00
 cg2d: Sum(rhs),rhsMax =  -1.23251201245012E-06  9.40441557017307E+00
 cg2d: Sum(rhs),rhsMax =  -1.23282314490325E-06  9.40204402384633E+00
 cg2d: Sum(rhs),rhsMax =  -1.23313902378186E-06  9.39963997843657E+00
 cg2d: Sum(rhs),rhsMax =  -9.31733069364782E-07  9.39720669802613E+00
 cg2d: Sum(rhs),rhsMax =   8.60800319912869E-12  3.38781536657899E-02
 cg2d: Sum(rhs),rhsMax =  -1.23131694351741E-06  9.41353444383216E+00
 cg2d: Sum(rhs),rhsMax =  -1.23160828735536E-06  9.41131252104942E+00
 cg2d: Sum(rhs),rhsMax =  -1.23190415735053E-06  9.40905149300629E+00
 cg2d: Sum(rhs),rhsMax =  -1.23220580405814E-06  9.40675205526348E+00
 cg2d: Sum(rhs),rhsMax =  -1.23251201245012E-06  9.40441557017307E+00
 cg2d: Sum(rhs),rhsMax =  -1.23282314490325E-06  9.40204402384633E+00
 cg2d: Sum(rhs),rhsMax =  -5.38153557272381E-08  9.39964034694404E+00
 cg2d: Sum(rhs),rhsMax =   8.79296635503124E-12  3.34391104146605E-02
 cg2d: Sum(rhs),rhsMax =  -1.23131694351741E-06  9.41353444383216E+00
 cg2d: Sum(rhs),rhsMax =  -1.23160828735536E-06  9.41131252104942E+00
 cg2d: Sum(rhs),rhsMax =  -1.23190415735053E-06  9.40905149300629E+00
 cg2d: Sum(rhs),rhsMax =  -1.23220580405814E-06  9.40675205526348E+00
 cg2d: Sum(rhs),rhsMax =  -1.23251201245012E-06  9.40441557017307E+00
 cg2d: Sum(rhs),rhsMax =  -1.26651248422149E-06  9.40204396191717E+00
 cg2d: Sum(rhs),rhsMax =   8.30557844722080E-12  3.51801031212849E-02
 cg2d: Sum(rhs),rhsMax =  -1.23131694351741E-06  9.41353444383216E+00
 cg2d: Sum(rhs),rhsMax =  -1.23160828735536E-06  9.41131252104942E+00
 cg2d: Sum(rhs),rhsMax =  -1.23190415735053E-06  9.40905149300629E+00
 cg2d: Sum(rhs),rhsMax =  -1.23220580405814E-06  9.40675205526348E+00
 cg2d: Sum(rhs),rhsMax =  -1.76846912580686E-06  9.40441548837762E+00
 cg2d: Sum(rhs),rhsMax =   7.61390950287932E-12  3.83214652437312E-02
 cg2d: Sum(rhs),rhsMax =  -1.23131694351741E-06  9.41353444383216E+00
 cg2d: Sum(rhs),rhsMax =  -1.23160828735536E-06  9.41131252104942E+00
 cg2d: Sum(rhs),rhsMax =  -1.23190415735053E-06  9.40905149300629E+00
 cg2d: Sum(rhs),rhsMax =  -6.23603554572583E-07  9.40675201548830E+00
 cg2d: Sum(rhs),rhsMax =   7.47202300033223E-12  3.92696357205190E-02
 cg2d: Sum(rhs),rhsMax =  -1.23131694351741E-06  9.41353444383216E+00
 cg2d: Sum(rhs),rhsMax =  -1.23160828735536E-06  9.41131252104942E+00
 cg2d: Sum(rhs),rhsMax =  -6.99537707760101E-08  9.40905138189501E+00
 cg2d: Sum(rhs),rhsMax =   7.57682805385684E-12  3.88365975230959E-02
 cg2d: Sum(rhs),rhsMax =  -1.23131694351741E-06  9.41353444383216E+00
 cg2d: Sum(rhs),rhsMax =  -2.29474128587981E-06  9.41131215984180E+00
 cg2d: Sum(rhs),rhsMax =   7.78466180406667E-12  3.80418179199203E-02
 cg2d: Sum(rhs),rhsMax =  -1.23131707141511E-06  9.41353444292828E+00
 cg2d: Sum(rhs),rhsMax =   7.93520804620584E-12  3.73621505365475E-02
 cg2d: Sum(rhs),rhsMax =  -7.46576347410155E-08  9.50907671569018E+00
 cg2d: Sum(rhs),rhsMax =  -7.46636956705515E-08  9.50827538007810E+00
 cg2d: Sum(rhs),rhsMax =  -7.46696002806857E-08  9.50759038673436E+00
 cg2d: Sum(rhs),rhsMax =  -7.46738635371003E-08  9.50702164848735E+00
 cg2d: Sum(rhs),rhsMax =  -7.46774944104800E-08  9.50656668487862E+00
 cg2d: Sum(rhs),rhsMax =  -7.46800878914655E-08  9.50622069715104E+00
 cg2d: Sum(rhs),rhsMax =  -7.46821626762539E-08  9.50597670066013E+00
 cg2d: Sum(rhs),rhsMax =  -7.46832924392038E-08  9.50582571630982E+00
 cg2d: Sum(rhs),rhsMax =  -7.46840456145037E-08  9.50575700943737E+00
 cg2d: Sum(rhs),rhsMax =  -7.46835624454434E-08  9.50575837107225E+00
 cg2d: Sum(rhs),rhsMax =  -7.46833208609132E-08  9.50581645922263E+00
 cg2d: Sum(rhs),rhsMax =  -7.46821982033907E-08  9.50591711991761E+00
 cg2d: Sum(rhs),rhsMax =  -7.46813526575352E-08  9.50604571310823E+00
 cg2d: Sum(rhs),rhsMax =  -7.46798960449269E-08  9.50618745972881E+00
 cg2d: Sum(rhs),rhsMax =  -7.46791073424902E-08  9.50632780119137E+00
 cg2d: Sum(rhs),rhsMax =  -7.46779846849677E-08  9.50645275158785E+00
 cg2d: Sum(rhs),rhsMax =  -7.46776720461639E-08  9.50654922994562E+00
 cg2d: Sum(rhs),rhsMax =  -7.46771249282574E-08  9.50660536798306E+00
 cg2d: Sum(rhs),rhsMax =  -7.46771320336848E-08  9.50661078108177E+00
 cg2d: Sum(rhs),rhsMax =  -7.46778141547111E-08  9.50655679154863E+00
 cg2d: Sum(rhs),rhsMax =  -7.46784394323186E-08  9.50643658250018E+00
 cg2d: Sum(rhs),rhsMax =  -7.46802726325768E-08  9.50624530490270E+00
 cg2d: Sum(rhs),rhsMax =  -7.46821271491172E-08  9.50598009866199E+00
 cg2d: Sum(rhs),rhsMax =  -7.46850545851885E-08  9.50564005870858E+00
 cg2d: Sum(rhs),rhsMax =  -7.46883372926277E-08  9.50522619443621E+00
 cg2d: Sum(rhs),rhsMax =  -7.46918829008791E-08  9.50474133855045E+00
 cg2d: Sum(rhs),rhsMax =  -7.46962030007126E-08  9.50418990415982E+00
 cg2d: Sum(rhs),rhsMax =  -7.47013260138374E-08  9.50357767429962E+00
 cg2d: Sum(rhs),rhsMax =  -7.47062216532868E-08  9.50291163791579E+00
 cg2d: Sum(rhs),rhsMax =  -7.47126236433360E-08  9.50219980056318E+00
 cg2d: Sum(rhs),rhsMax =  -7.47184074612051E-08  9.50145094748729E+00
 cg2d: Sum(rhs),rhsMax =  -7.47247455024080E-08  9.50067438045622E+00
 cg2d: Sum(rhs),rhsMax =  -7.47313322335685E-08  9.49987965703835E+00
 cg2d: Sum(rhs),rhsMax =  -7.47377768561819E-08  9.49907634096511E+00
 cg2d: Sum(rhs),rhsMax =  -7.47441433190943E-08  9.49827377465974E+00
 cg2d: Sum(rhs),rhsMax =  -7.47505310982888E-08  9.49748086980356E+00
 cg2d: Sum(rhs),rhsMax =  -7.47569046666285E-08  9.49670591827534E+00
 cg2d: Sum(rhs),rhsMax =  -7.47627666441986E-08  9.49595642566026E+00
 cg2d: Sum(rhs),rhsMax =  -7.47686570434780E-08  9.49523896197083E+00
 cg2d: Sum(rhs),rhsMax =  -7.47742205930990E-08  9.49455904201468E+00
 cg2d: Sum(rhs),rhsMax =  -7.47793578170786E-08  9.49392104808525E+00
 cg2d: Sum(rhs),rhsMax =  -7.47843102999468E-08  9.49332815058320E+00
 cg2d: Sum(rhs),rhsMax =  -7.47889217223019E-08  9.49278226320107E+00
 cg2d: Sum(rhs),rhsMax =  -7.47930855027334E-08  9.49228403703651E+00
 cg2d: Sum(rhs),rhsMax =  -7.47963611047453E-08  9.49183288684206E+00
 cg2d: Sum(rhs),rhsMax =  -7.48000417161165E-08  9.49142705076112E+00
 cg2d: Sum(rhs),rhsMax =  -7.48029052033417E-08  9.49106366991647E+00
 cg2d: Sum(rhs),rhsMax =  -7.48058113231309E-08  9.49073888097194E+00
 cg2d: Sum(rhs),rhsMax =  -7.48079642676203E-08  9.49044792286002E+00
 cg2d: Sum(rhs),rhsMax =  -7.48104369563407E-08  9.49018527463466E+00
 EXTERNAL_FIELDS_LOAD, it=   3600330 : Reading new data, i0,i1=    6    7 (prev=    5    7 )
 DIC_FIELDS_LOAD, it=   3600330 : Reading new data, i0,i1=    6    7 (prev=    5    6 )
 cg2d: Sum(rhs),rhsMax =  -7.48125685845480E-08  9.48994481428126E+00
 cg2d: Sum(rhs),rhsMax =  -7.48145367879260E-08  9.48970977028949E+00
 cg2d: Sum(rhs),rhsMax =  -7.48167536812616E-08  9.48946667050908E+00
 cg2d: Sum(rhs),rhsMax =  -7.48186579357935E-08  9.48920195983684E+00
 cg2d: Sum(rhs),rhsMax =  -7.48212727330611E-08  9.48890231838115E+00
 cg2d: Sum(rhs),rhsMax =  -7.48240864822947E-08  9.48855490239494E+00
 cg2d: Sum(rhs),rhsMax =  -7.48277528828112E-08  9.48814760448955E+00
 cg2d: Sum(rhs),rhsMax =  -7.48317106058494E-08  9.48766929469714E+00
 cg2d: Sum(rhs),rhsMax =  -7.48361301816658E-08  9.48711003726197E+00
 cg2d: Sum(rhs),rhsMax =  -7.48412745110727E-08  9.48646127184076E+00
 cg2d: Sum(rhs),rhsMax =  -7.48473496514634E-08  9.48571598443359E+00
 cg2d: Sum(rhs),rhsMax =  -7.48540713857437E-08  9.48486884714226E+00
 cg2d: Sum(rhs),rhsMax =  -7.48618091961362E-08  9.48391631089758E+00
 cg2d: Sum(rhs),rhsMax =  -7.48703143926832E-08  9.48285664384895E+00
 cg2d: Sum(rhs),rhsMax =  -7.48790469629057E-08  9.48168991622247E+00
 cg2d: Sum(rhs),rhsMax =  -7.48895487845402E-08  9.48041794354397E+00
 cg2d: Sum(rhs),rhsMax =  -7.49003561395511E-08  9.47904418707887E+00
 cg2d: Sum(rhs),rhsMax =  -7.49121227272553E-08  9.47757361133926E+00
 cg2d: Sum(rhs),rhsMax =  -7.49249196019264E-08  9.47601250495736E+00
 cg2d: Sum(rhs),rhsMax =  -7.49377875308710E-08  9.47436827146146E+00
 cg2d: Sum(rhs),rhsMax =  -7.49514157405429E-08  9.47264919973884E+00
 cg2d: Sum(rhs),rhsMax =  -7.49656123844034E-08  9.47086422427234E+00
 cg2d: Sum(rhs),rhsMax =  -7.49802140376232E-08  9.46902267691356E+00
 cg2d: Sum(rhs),rhsMax =  -7.49953059653308E-08  9.46713403481286E+00
 cg2d: Sum(rhs),rhsMax =  -7.50105257907308E-08  9.46520767024855E+00
 cg2d: Sum(rhs),rhsMax =  -7.50263424720288E-08  9.46325259778073E+00
 cg2d: Sum(rhs),rhsMax =  -7.50422373130277E-08  9.46127726524814E+00
 cg2d: Sum(rhs),rhsMax =  -7.50577768826588E-08  9.45928937477588E+00
 cg2d: Sum(rhs),rhsMax =  -7.50738990973332E-08  9.45729571583441E+00
 cg2d: Sum(rhs),rhsMax =  -7.50896163026482E-08  9.45530206338839E+00
 cg2d: Sum(rhs),rhsMax =  -7.51056461467670E-08  9.45331309804778E+00
 cg2d: Sum(rhs),rhsMax =  -7.51212709815263E-08  9.45133234916556E+00
 cg2d: Sum(rhs),rhsMax =  -7.51373789853460E-08  9.44936217148271E+00
 cg2d: Sum(rhs),rhsMax =  -7.51527906572846E-08  9.44740375781686E+00
 cg2d: Sum(rhs),rhsMax =  -7.51685931277279E-08  9.44545718748645E+00
 cg2d: Sum(rhs),rhsMax =  -7.51841966462052E-08  9.44352151007986E+00
 cg2d: Sum(rhs),rhsMax =  -7.51994591041694E-08  9.44159486329961E+00
 cg2d: Sum(rhs),rhsMax =  -7.52147784055524E-08  9.43967460290015E+00
 cg2d: Sum(rhs),rhsMax =  -7.52305737705683E-08  9.43775744343237E+00
 cg2d: Sum(rhs),rhsMax =  -7.52457793851136E-08  9.43583960877673E+00
 cg2d: Sum(rhs),rhsMax =  -1.41275162945931E-06  9.43391712817353E+00
 cg2d: Sum(rhs),rhsMax =  -1.41304105483187E-06  9.43198539722723E+00
 cg2d: Sum(rhs),rhsMax =  -1.41333268288690E-06  9.43004018847532E+00
 cg2d: Sum(rhs),rhsMax =  -1.41362705363690E-06  9.42807718943893E+00
 cg2d: Sum(rhs),rhsMax =  -1.41392516184169E-06  9.42609225837495E+00
 cg2d: Sum(rhs),rhsMax =  -1.41422694355242E-06  9.42408152262125E+00
 cg2d: Sum(rhs),rhsMax =  -1.41453323720953E-06  9.42204146575072E+00
 cg2d: Sum(rhs),rhsMax =  -1.41484477467202E-06  9.41996901069406E+00
 cg2d: Sum(rhs),rhsMax =  -1.41516154883448E-06  9.41786158809890E+00
 cg2d: Sum(rhs),rhsMax =  -1.41548417076365E-06  9.41571718729372E+00
 cg2d: Sum(rhs),rhsMax =  -1.41275162945931E-06  9.43391712817353E+00
 cg2d: Sum(rhs),rhsMax =  -1.41304105483187E-06  9.43198539722723E+00
 cg2d: Sum(rhs),rhsMax =  -1.41333268288690E-06  9.43004018847532E+00
 cg2d: Sum(rhs),rhsMax =  -1.41362705363690E-06  9.42807718943893E+00
 cg2d: Sum(rhs),rhsMax =  -1.41392516184169E-06  9.42609225837495E+00
 cg2d: Sum(rhs),rhsMax =  -1.41422694355242E-06  9.42408152262125E+00
 cg2d: Sum(rhs),rhsMax =  -1.41453323720953E-06  9.42204146575072E+00
 cg2d: Sum(rhs),rhsMax =  -1.41484477467202E-06  9.41996901069406E+00
 cg2d: Sum(rhs),rhsMax =  -1.41516154883448E-06  9.41786158809890E+00
 cg2d: Sum(rhs),rhsMax =  -8.28039027567229E-07  9.41571682804629E+00
 cg2d: Sum(rhs),rhsMax =   8.08131339624651E-12  3.68100654090797E-02
 cg2d: Sum(rhs),rhsMax =  -1.41275162945931E-06  9.43391712817353E+00
 cg2d: Sum(rhs),rhsMax =  -1.41304105483187E-06  9.43198539722723E+00
 cg2d: Sum(rhs),rhsMax =  -1.41333268288690E-06  9.43004018847532E+00
 cg2d: Sum(rhs),rhsMax =  -1.41362705363690E-06  9.42807718943893E+00
 cg2d: Sum(rhs),rhsMax =  -1.41392516184169E-06  9.42609225837495E+00
 cg2d: Sum(rhs),rhsMax =  -1.41422694355242E-06  9.42408152262125E+00
 cg2d: Sum(rhs),rhsMax =  -1.41453323720953E-06  9.42204146575072E+00
 cg2d: Sum(rhs),rhsMax =  -1.41484477467202E-06  9.41996901069406E+00
 cg2d: Sum(rhs),rhsMax =  -8.58523279134715E-07  9.41786171358799E+00
 cg2d: Sum(rhs),rhsMax =   8.19788681383216E-12  3.62413158258271E-02
 cg2d: Sum(rhs),rhsMax =  -1.41275162945931E-06  9.43391712817353E+00
 cg2d: Sum(rhs),rhsMax =  -1.41304105483187E-06  9.43198539722723E+00
 cg2d: Sum(rhs),rhsMax =  -1.41333268288690E-06  9.43004018847532E+00
 cg2d: Sum(rhs),rhsMax =  -1.41362705363690E-06  9.42807718943893E+00
 cg2d: Sum(rhs),rhsMax =  -1.41392516184169E-06  9.42609225837495E+00
 cg2d: Sum(rhs),rhsMax =  -1.41422694355242E-06  9.42408152262125E+00
 cg2d: Sum(rhs),rhsMax =  -1.41453323720953E-06  9.42204146575072E+00
 cg2d: Sum(rhs),rhsMax =  -2.61545749680181E-06  9.41996935534754E+00
 cg2d: Sum(rhs),rhsMax =   8.37729885461158E-12  3.55444411436542E-02
 cg2d: Sum(rhs),rhsMax =  -1.41275162945931E-06  9.43391712817353E+00
 cg2d: Sum(rhs),rhsMax =  -1.41304105483187E-06  9.43198539722723E+00
 cg2d: Sum(rhs),rhsMax =  -1.41333268288690E-06  9.43004018847532E+00
 cg2d: Sum(rhs),rhsMax =  -1.41362705363690E-06  9.42807718943893E+00
 cg2d: Sum(rhs),rhsMax =  -1.41392516184169E-06  9.42609225837495E+00
 cg2d: Sum(rhs),rhsMax =  -1.41422694355242E-06  9.42408152262125E+00
 cg2d: Sum(rhs),rhsMax =  -1.15227796726458E-06  9.42204156658280E+00
 cg2d: Sum(rhs),rhsMax =   8.54138981765118E-12  3.48215924086829E-02
 cg2d: Sum(rhs),rhsMax =  -1.41275162945931E-06  9.43391712817353E+00
 cg2d: Sum(rhs),rhsMax =  -1.41304105483187E-06  9.43198539722723E+00
 cg2d: Sum(rhs),rhsMax =  -1.41333268288690E-06  9.43004018847532E+00
 cg2d: Sum(rhs),rhsMax =  -1.41362705363690E-06  9.42807718943893E+00
 cg2d: Sum(rhs),rhsMax =  -1.41392516184169E-06  9.42609225837495E+00
 cg2d: Sum(rhs),rhsMax =  -7.44691682541543E-07  9.42408173271704E+00
 cg2d: Sum(rhs),rhsMax =   8.70481464687600E-12  3.42393199965489E-02
 cg2d: Sum(rhs),rhsMax =  -1.41275162945931E-06  9.43391712817353E+00
 cg2d: Sum(rhs),rhsMax =  -1.41304105483187E-06  9.43198539722723E+00
 cg2d: Sum(rhs),rhsMax =  -1.41333268288690E-06  9.43004018847532E+00
 cg2d: Sum(rhs),rhsMax =  -1.41362705363690E-06  9.42807718943893E+00
 cg2d: Sum(rhs),rhsMax =  -1.44743408725390E-06  9.42609255476000E+00
 cg2d: Sum(rhs),rhsMax =   8.82960371484387E-12  3.38859691680391E-02
 cg2d: Sum(rhs),rhsMax =  -1.41275162945931E-06  9.43391712817353E+00
 cg2d: Sum(rhs),rhsMax =  -1.41304105483187E-06  9.43198539722723E+00
 cg2d: Sum(rhs),rhsMax =  -1.41333268288690E-06  9.43004018847532E+00
 cg2d: Sum(rhs),rhsMax =  -1.38030574703407E-06  9.42807681701905E+00
 cg2d: Sum(rhs),rhsMax =   8.31779090049167E-12  3.60093192468346E-02
 cg2d: Sum(rhs),rhsMax =  -1.41275162945931E-06  9.43391712817353E+00
 cg2d: Sum(rhs),rhsMax =  -1.41304105483187E-06  9.43198539722723E+00
 cg2d: Sum(rhs),rhsMax =  -8.52584022936753E-07  9.43004045110061E+00
 cg2d: Sum(rhs),rhsMax =   8.24540435928611E-12  3.65449816962511E-02
 cg2d: Sum(rhs),rhsMax =  -1.41275162945931E-06  9.43391712817353E+00
 cg2d: Sum(rhs),rhsMax =  -6.14161741907537E-07  9.43198568030646E+00
 cg2d: Sum(rhs),rhsMax =   8.37419023014263E-12  3.59123814461854E-02
 cg2d: Sum(rhs),rhsMax =  -1.41275149445619E-06  9.43391712794820E+00
 cg2d: Sum(rhs),rhsMax =   8.59667892427751E-12  3.50381411830878E-02
 cg2d: Sum(rhs),rhsMax =  -7.46576347410155E-08  9.50907671569018E+00
 cg2d: Sum(rhs),rhsMax =  -7.46636956705515E-08  9.50827538007810E+00
 cg2d: Sum(rhs),rhsMax =  -7.46696002806857E-08  9.50759038673436E+00
 cg2d: Sum(rhs),rhsMax =  -7.46738635371003E-08  9.50702164848735E+00
 cg2d: Sum(rhs),rhsMax =  -7.46774944104800E-08  9.50656668487862E+00
 cg2d: Sum(rhs),rhsMax =  -7.46800878914655E-08  9.50622069715104E+00
 cg2d: Sum(rhs),rhsMax =  -7.46821626762539E-08  9.50597670066013E+00
 cg2d: Sum(rhs),rhsMax =  -7.46832924392038E-08  9.50582571630982E+00
 cg2d: Sum(rhs),rhsMax =  -7.46840456145037E-08  9.50575700943737E+00
 cg2d: Sum(rhs),rhsMax =  -7.46835624454434E-08  9.50575837107225E+00
 cg2d: Sum(rhs),rhsMax =  -7.46833208609132E-08  9.50581645922263E+00
 cg2d: Sum(rhs),rhsMax =  -7.46821982033907E-08  9.50591711991761E+00
 cg2d: Sum(rhs),rhsMax =  -7.46813526575352E-08  9.50604571310823E+00
 cg2d: Sum(rhs),rhsMax =  -7.46798960449269E-08  9.50618745972881E+00
 cg2d: Sum(rhs),rhsMax =  -7.46791073424902E-08  9.50632780119137E+00
 cg2d: Sum(rhs),rhsMax =  -7.46779846849677E-08  9.50645275158785E+00
 cg2d: Sum(rhs),rhsMax =  -7.46776720461639E-08  9.50654922994562E+00
 cg2d: Sum(rhs),rhsMax =  -7.46771249282574E-08  9.50660536798306E+00
 cg2d: Sum(rhs),rhsMax =  -7.46771320336848E-08  9.50661078108177E+00
 cg2d: Sum(rhs),rhsMax =  -7.46778141547111E-08  9.50655679154863E+00
 cg2d: Sum(rhs),rhsMax =  -7.46784394323186E-08  9.50643658250018E+00
 cg2d: Sum(rhs),rhsMax =  -7.46802726325768E-08  9.50624530490270E+00
 cg2d: Sum(rhs),rhsMax =  -7.46821271491172E-08  9.50598009866199E+00
 cg2d: Sum(rhs),rhsMax =  -7.46850545851885E-08  9.50564005870858E+00
 cg2d: Sum(rhs),rhsMax =  -7.46883372926277E-08  9.50522619443621E+00
 cg2d: Sum(rhs),rhsMax =  -7.46918829008791E-08  9.50474133855045E+00
 cg2d: Sum(rhs),rhsMax =  -7.46962030007126E-08  9.50418990415982E+00
 cg2d: Sum(rhs),rhsMax =  -7.47013260138374E-08  9.50357767429962E+00
 cg2d: Sum(rhs),rhsMax =  -7.47062216532868E-08  9.50291163791579E+00
 cg2d: Sum(rhs),rhsMax =  -7.47126236433360E-08  9.50219980056318E+00
 cg2d: Sum(rhs),rhsMax =  -7.47184074612051E-08  9.50145094748729E+00
 cg2d: Sum(rhs),rhsMax =  -7.47247455024080E-08  9.50067438045622E+00
 cg2d: Sum(rhs),rhsMax =  -7.47313322335685E-08  9.49987965703835E+00
 cg2d: Sum(rhs),rhsMax =  -7.47377768561819E-08  9.49907634096511E+00
 cg2d: Sum(rhs),rhsMax =  -7.47441433190943E-08  9.49827377465974E+00
 cg2d: Sum(rhs),rhsMax =  -7.47505310982888E-08  9.49748086980356E+00
 cg2d: Sum(rhs),rhsMax =  -7.47569046666285E-08  9.49670591827534E+00
 cg2d: Sum(rhs),rhsMax =  -7.47627666441986E-08  9.49595642566026E+00
 cg2d: Sum(rhs),rhsMax =  -7.47686570434780E-08  9.49523896197083E+00
 cg2d: Sum(rhs),rhsMax =  -7.47742205930990E-08  9.49455904201468E+00
 cg2d: Sum(rhs),rhsMax =  -7.47793578170786E-08  9.49392104808525E+00
 cg2d: Sum(rhs),rhsMax =  -7.47843102999468E-08  9.49332815058320E+00
 cg2d: Sum(rhs),rhsMax =  -7.47889217223019E-08  9.49278226320107E+00
 cg2d: Sum(rhs),rhsMax =  -7.47930855027334E-08  9.49228403703651E+00
 cg2d: Sum(rhs),rhsMax =  -7.47963611047453E-08  9.49183288684206E+00
 cg2d: Sum(rhs),rhsMax =  -7.48000417161165E-08  9.49142705076112E+00
 cg2d: Sum(rhs),rhsMax =  -7.48029052033417E-08  9.49106366991647E+00
 cg2d: Sum(rhs),rhsMax =  -7.48058113231309E-08  9.49073888097194E+00
 cg2d: Sum(rhs),rhsMax =  -7.48079642676203E-08  9.49044792286002E+00
 cg2d: Sum(rhs),rhsMax =  -7.48104369563407E-08  9.49018527463466E+00
 EXTERNAL_FIELDS_LOAD, it=   3600330 : Reading new data, i0,i1=    6    7 (prev=    5    7 )
 DIC_FIELDS_LOAD, it=   3600330 : Reading new data, i0,i1=    6    7 (prev=    5    6 )
 cg2d: Sum(rhs),rhsMax =  -7.48125685845480E-08  9.48994481428126E+00
 cg2d: Sum(rhs),rhsMax =  -7.48145367879260E-08  9.48970977028949E+00
 cg2d: Sum(rhs),rhsMax =  -7.48167536812616E-08  9.48946667050908E+00
 cg2d: Sum(rhs),rhsMax =  -7.48186579357935E-08  9.48920195983684E+00
 cg2d: Sum(rhs),rhsMax =  -7.48212727330611E-08  9.48890231838115E+00
 cg2d: Sum(rhs),rhsMax =  -7.48240864822947E-08  9.48855490239494E+00
 cg2d: Sum(rhs),rhsMax =  -7.48277528828112E-08  9.48814760448955E+00
 cg2d: Sum(rhs),rhsMax =  -7.48317106058494E-08  9.48766929469714E+00
 cg2d: Sum(rhs),rhsMax =  -7.48361301816658E-08  9.48711003726197E+00
 cg2d: Sum(rhs),rhsMax =  -7.48412745110727E-08  9.48646127184076E+00
 cg2d: Sum(rhs),rhsMax =  -7.48473496514634E-08  9.48571598443359E+00
 cg2d: Sum(rhs),rhsMax =  -7.48540713857437E-08  9.48486884714226E+00
 cg2d: Sum(rhs),rhsMax =  -7.48618091961362E-08  9.48391631089758E+00
 cg2d: Sum(rhs),rhsMax =  -7.48703143926832E-08  9.48285664384895E+00
 cg2d: Sum(rhs),rhsMax =  -7.48790469629057E-08  9.48168991622247E+00
 cg2d: Sum(rhs),rhsMax =  -7.48895487845402E-08  9.48041794354397E+00
 cg2d: Sum(rhs),rhsMax =  -7.49003561395511E-08  9.47904418707887E+00
 cg2d: Sum(rhs),rhsMax =  -7.49121227272553E-08  9.47757361133926E+00
 cg2d: Sum(rhs),rhsMax =  -7.49249196019264E-08  9.47601250495736E+00
 cg2d: Sum(rhs),rhsMax =  -7.49377875308710E-08  9.47436827146146E+00
 cg2d: Sum(rhs),rhsMax =  -7.49514157405429E-08  9.47264919973884E+00
 cg2d: Sum(rhs),rhsMax =  -7.49656123844034E-08  9.47086422427234E+00
 cg2d: Sum(rhs),rhsMax =  -7.49802140376232E-08  9.46902267691356E+00
 cg2d: Sum(rhs),rhsMax =  -7.49953059653308E-08  9.46713403481286E+00
 cg2d: Sum(rhs),rhsMax =  -7.50105257907308E-08  9.46520767024855E+00
 cg2d: Sum(rhs),rhsMax =  -7.50263424720288E-08  9.46325259778073E+00
 cg2d: Sum(rhs),rhsMax =  -7.50422373130277E-08  9.46127726524814E+00
 cg2d: Sum(rhs),rhsMax =  -7.50577768826588E-08  9.45928937477588E+00
 cg2d: Sum(rhs),rhsMax =  -7.50738990973332E-08  9.45729571583441E+00
 cg2d: Sum(rhs),rhsMax =  -7.50896163026482E-08  9.45530206338839E+00
 cg2d: Sum(rhs),rhsMax =   3.32977705852500E-07  9.45331332509649E+00
 cg2d: Sum(rhs),rhsMax =   3.33047374567741E-07  9.45133259177089E+00
 cg2d: Sum(rhs),rhsMax =   3.33116489059648E-07  9.44936244494472E+00
 cg2d: Sum(rhs),rhsMax =   3.33185717238393E-07  9.44740405450964E+00
 cg2d: Sum(rhs),rhsMax =   3.33254092765856E-07  9.44545747437565E+00
 cg2d: Sum(rhs),rhsMax =   3.33322532242164E-07  9.44352173769915E+00
 cg2d: Sum(rhs),rhsMax =   3.33390417495139E-07  9.44159497727306E+00
 cg2d: Sum(rhs),rhsMax =   3.33458253010122E-07  9.43967455241801E+00
 cg2d: Sum(rhs),rhsMax =   3.33525605356044E-07  9.43775718556064E+00
 cg2d: Sum(rhs),rhsMax =   3.33593284551625E-07  9.43583910986953E+00
 cg2d: Sum(rhs),rhsMax =   3.32977705852500E-07  9.45331332509649E+00
 cg2d: Sum(rhs),rhsMax =   3.33047374567741E-07  9.45133259177089E+00
 cg2d: Sum(rhs),rhsMax =   3.33116489059648E-07  9.44936244494472E+00
 cg2d: Sum(rhs),rhsMax =   3.33185717238393E-07  9.44740405450964E+00
 cg2d: Sum(rhs),rhsMax =   3.33254092765856E-07  9.44545747437565E+00
 cg2d: Sum(rhs),rhsMax =   3.33322532242164E-07  9.44352173769915E+00
 cg2d: Sum(rhs),rhsMax =   3.33390417495139E-07  9.44159497727306E+00
 cg2d: Sum(rhs),rhsMax =   3.33458253010122E-07  9.43967455241801E+00
 cg2d: Sum(rhs),rhsMax =   3.33525605356044E-07  9.43775718556064E+00
 cg2d: Sum(rhs),rhsMax =   7.54817342851766E-07  9.43583936808664E+00
 cg2d: Sum(rhs),rhsMax =   8.52318216004733E-12  3.53141355415879E-02
 cg2d: Sum(rhs),rhsMax =   3.32977705852500E-07  9.45331332509649E+00
 cg2d: Sum(rhs),rhsMax =   3.33047374567741E-07  9.45133259177089E+00
 cg2d: Sum(rhs),rhsMax =   3.33116489059648E-07  9.44936244494472E+00
 cg2d: Sum(rhs),rhsMax =   3.33185717238393E-07  9.44740405450964E+00
 cg2d: Sum(rhs),rhsMax =   3.33254092765856E-07  9.44545747437565E+00
 cg2d: Sum(rhs),rhsMax =   3.33322532242164E-07  9.44352173769915E+00
 cg2d: Sum(rhs),rhsMax =   3.33390417495139E-07  9.44159497727306E+00
 cg2d: Sum(rhs),rhsMax =   3.33458253010122E-07  9.43967455241801E+00
 cg2d: Sum(rhs),rhsMax =   6.07040995248553E-07  9.43775696237029E+00
 cg2d: Sum(rhs),rhsMax =   8.50608472546810E-12  3.56787471723455E-02
 cg2d: Sum(rhs),rhsMax =   3.32977705852500E-07  9.45331332509649E+00
 cg2d: Sum(rhs),rhsMax =   3.33047374567741E-07  9.45133259177089E+00
 cg2d: Sum(rhs),rhsMax =   3.33116489059648E-07  9.44936244494472E+00
 cg2d: Sum(rhs),rhsMax =   3.33185717238393E-07  9.44740405450964E+00
 cg2d: Sum(rhs),rhsMax =   3.33254092765856E-07  9.44545747437565E+00
 cg2d: Sum(rhs),rhsMax =   3.33322532242164E-07  9.44352173769915E+00
 cg2d: Sum(rhs),rhsMax =   3.33390417495139E-07  9.44159497727306E+00
 cg2d: Sum(rhs),rhsMax =   1.15378755793927E-06  9.43967473270389E+00
 cg2d: Sum(rhs),rhsMax =   8.36730684738995E-12  3.62323159551987E-02
 cg2d: Sum(rhs),rhsMax =   3.32977705852500E-07  9.45331332509649E+00
 cg2d: Sum(rhs),rhsMax =   3.33047374567741E-07  9.45133259177089E+00
 cg2d: Sum(rhs),rhsMax =   3.33116489059648E-07  9.44936244494472E+00
 cg2d: Sum(rhs),rhsMax =   3.33185717238393E-07  9.44740405450964E+00
 cg2d: Sum(rhs),rhsMax =   3.33254092765856E-07  9.44545747437565E+00
 cg2d: Sum(rhs),rhsMax =   3.33322532242164E-07  9.44352173769915E+00
 cg2d: Sum(rhs),rhsMax =   3.70494966261958E-07  9.44159480282363E+00
 cg2d: Sum(rhs),rhsMax =   8.26827495359339E-12  3.67449787174665E-02
 cg2d: Sum(rhs),rhsMax =   3.32977705852500E-07  9.45331332509649E+00
 cg2d: Sum(rhs),rhsMax =   3.33047374567741E-07  9.45133259177089E+00
 cg2d: Sum(rhs),rhsMax =   3.33116489059648E-07  9.44936244494472E+00
 cg2d: Sum(rhs),rhsMax =   3.33185717238393E-07  9.44740405450964E+00
 cg2d: Sum(rhs),rhsMax =   3.33254092765856E-07  9.44545747437565E+00
 cg2d: Sum(rhs),rhsMax =  -1.16043956666090E-07  9.44352172455639E+00
 cg2d: Sum(rhs),rhsMax =   8.20321588435036E-12  3.71879722866442E-02
 cg2d: Sum(rhs),rhsMax =   3.32977705852500E-07  9.45331332509649E+00
 cg2d: Sum(rhs),rhsMax =   3.33047374567741E-07  9.45133259177089E+00
 cg2d: Sum(rhs),rhsMax =   3.33116489059648E-07  9.44936244494472E+00
 cg2d: Sum(rhs),rhsMax =   3.33185717238393E-07  9.44740405450964E+00
 cg2d: Sum(rhs),rhsMax =   1.71885628930113E-06  9.44545713013194E+00
 cg2d: Sum(rhs),rhsMax =   8.18101142385785E-12  3.75409858139748E-02
 cg2d: Sum(rhs),rhsMax =   3.32977705852500E-07  9.45331332509649E+00
 cg2d: Sum(rhs),rhsMax =   3.33047374567741E-07  9.45133259177089E+00
 cg2d: Sum(rhs),rhsMax =   3.33116489059648E-07  9.44936244494472E+00
 cg2d: Sum(rhs),rhsMax =   1.95765046839824E-07  9.44740427618394E+00
 cg2d: Sum(rhs),rhsMax =   7.46358530534508E-12  4.14210314935955E-02
 cg2d: Sum(rhs),rhsMax =   3.32977705852500E-07  9.45331332509649E+00
 cg2d: Sum(rhs),rhsMax =   3.33047374567741E-07  9.45133259177089E+00
 cg2d: Sum(rhs),rhsMax =  -1.93668370229716E-09  9.44936270164772E+00
 cg2d: Sum(rhs),rhsMax =   6.90536516856355E-12  4.43328853431164E-02
 cg2d: Sum(rhs),rhsMax =   3.32977705852500E-07  9.45331332509649E+00
 cg2d: Sum(rhs),rhsMax =   2.44486763278928E-07  9.45133276551281E+00
 cg2d: Sum(rhs),rhsMax =   6.84918788351752E-12  4.45682110348857E-02
 cg2d: Sum(rhs),rhsMax =   3.32977478478824E-07  9.45331332469970E+00
 cg2d: Sum(rhs),rhsMax =   7.08677561078730E-12  4.31916690391609E-02
 cg2d: Sum(rhs),rhsMax =  -7.46576347410155E-08  9.50907671569018E+00
 cg2d: Sum(rhs),rhsMax =  -7.46636956705515E-08  9.50827538007810E+00
 cg2d: Sum(rhs),rhsMax =  -7.46696002806857E-08  9.50759038673436E+00
 cg2d: Sum(rhs),rhsMax =  -7.46738635371003E-08  9.50702164848735E+00
 cg2d: Sum(rhs),rhsMax =  -7.46774944104800E-08  9.50656668487862E+00
 cg2d: Sum(rhs),rhsMax =  -7.46800878914655E-08  9.50622069715104E+00
 cg2d: Sum(rhs),rhsMax =  -7.46821626762539E-08  9.50597670066013E+00
 cg2d: Sum(rhs),rhsMax =  -7.46832924392038E-08  9.50582571630982E+00
 cg2d: Sum(rhs),rhsMax =  -7.46840456145037E-08  9.50575700943737E+00
 cg2d: Sum(rhs),rhsMax =  -7.46835624454434E-08  9.50575837107225E+00
 cg2d: Sum(rhs),rhsMax =  -7.46833208609132E-08  9.50581645922263E+00
 cg2d: Sum(rhs),rhsMax =  -7.46821982033907E-08  9.50591711991761E+00
 cg2d: Sum(rhs),rhsMax =  -7.46813526575352E-08  9.50604571310823E+00
 cg2d: Sum(rhs),rhsMax =  -7.46798960449269E-08  9.50618745972881E+00
 cg2d: Sum(rhs),rhsMax =  -7.46791073424902E-08  9.50632780119137E+00
 cg2d: Sum(rhs),rhsMax =  -7.46779846849677E-08  9.50645275158785E+00
 cg2d: Sum(rhs),rhsMax =  -7.46776720461639E-08  9.50654922994562E+00
 cg2d: Sum(rhs),rhsMax =  -7.46771249282574E-08  9.50660536798306E+00
 cg2d: Sum(rhs),rhsMax =  -7.46771320336848E-08  9.50661078108177E+00
 cg2d: Sum(rhs),rhsMax =  -7.46778141547111E-08  9.50655679154863E+00
 cg2d: Sum(rhs),rhsMax =  -7.46784394323186E-08  9.50643658250018E+00
 cg2d: Sum(rhs),rhsMax =  -7.46802726325768E-08  9.50624530490270E+00
 cg2d: Sum(rhs),rhsMax =  -7.46821271491172E-08  9.50598009866199E+00
 cg2d: Sum(rhs),rhsMax =  -7.46850545851885E-08  9.50564005870858E+00
 cg2d: Sum(rhs),rhsMax =  -7.46883372926277E-08  9.50522619443621E+00
 cg2d: Sum(rhs),rhsMax =  -7.46918829008791E-08  9.50474133855045E+00
 cg2d: Sum(rhs),rhsMax =  -7.46962030007126E-08  9.50418990415982E+00
 cg2d: Sum(rhs),rhsMax =  -7.47013260138374E-08  9.50357767429962E+00
 cg2d: Sum(rhs),rhsMax =  -7.47062216532868E-08  9.50291163791579E+00
 cg2d: Sum(rhs),rhsMax =  -7.47126236433360E-08  9.50219980056318E+00
 cg2d: Sum(rhs),rhsMax =  -7.47184074612051E-08  9.50145094748729E+00
 cg2d: Sum(rhs),rhsMax =  -7.47247455024080E-08  9.50067438045622E+00
 cg2d: Sum(rhs),rhsMax =  -7.47313322335685E-08  9.49987965703835E+00
 cg2d: Sum(rhs),rhsMax =  -7.47377768561819E-08  9.49907634096511E+00
 cg2d: Sum(rhs),rhsMax =  -7.47441433190943E-08  9.49827377465974E+00
 cg2d: Sum(rhs),rhsMax =  -7.47505310982888E-08  9.49748086980356E+00
 cg2d: Sum(rhs),rhsMax =  -7.47569046666285E-08  9.49670591827534E+00
 cg2d: Sum(rhs),rhsMax =  -7.47627666441986E-08  9.49595642566026E+00
 cg2d: Sum(rhs),rhsMax =  -7.47686570434780E-08  9.49523896197083E+00
 cg2d: Sum(rhs),rhsMax =  -7.47742205930990E-08  9.49455904201468E+00
 cg2d: Sum(rhs),rhsMax =  -7.47793578170786E-08  9.49392104808525E+00
 cg2d: Sum(rhs),rhsMax =  -7.47843102999468E-08  9.49332815058320E+00
 cg2d: Sum(rhs),rhsMax =  -7.47889217223019E-08  9.49278226320107E+00
 cg2d: Sum(rhs),rhsMax =  -7.47930855027334E-08  9.49228403703651E+00
 cg2d: Sum(rhs),rhsMax =  -7.47963611047453E-08  9.49183288684206E+00
 cg2d: Sum(rhs),rhsMax =  -7.48000417161165E-08  9.49142705076112E+00
 cg2d: Sum(rhs),rhsMax =  -7.48029052033417E-08  9.49106366991647E+00
 cg2d: Sum(rhs),rhsMax =  -7.48058113231309E-08  9.49073888097194E+00
 cg2d: Sum(rhs),rhsMax =  -7.48079642676203E-08  9.49044792286002E+00
 cg2d: Sum(rhs),rhsMax =  -7.48104369563407E-08  9.49018527463466E+00
 EXTERNAL_FIELDS_LOAD, it=   3600330 : Reading new data, i0,i1=    6    7 (prev=    5    7 )
 DIC_FIELDS_LOAD, it=   3600330 : Reading new data, i0,i1=    6    7 (prev=    5    6 )
 cg2d: Sum(rhs),rhsMax =  -7.48125685845480E-08  9.48994481428126E+00
 cg2d: Sum(rhs),rhsMax =  -7.48145367879260E-08  9.48970977028949E+00
 cg2d: Sum(rhs),rhsMax =  -7.48167536812616E-08  9.48946667050908E+00
 cg2d: Sum(rhs),rhsMax =  -7.48186579357935E-08  9.48920195983684E+00
 cg2d: Sum(rhs),rhsMax =  -7.48212727330611E-08  9.48890231838115E+00
 cg2d: Sum(rhs),rhsMax =  -7.48240864822947E-08  9.48855490239494E+00
 cg2d: Sum(rhs),rhsMax =  -7.48277528828112E-08  9.48814760448955E+00
 cg2d: Sum(rhs),rhsMax =  -7.48317106058494E-08  9.48766929469714E+00
 cg2d: Sum(rhs),rhsMax =  -7.48361301816658E-08  9.48711003726197E+00
 cg2d: Sum(rhs),rhsMax =  -7.48412745110727E-08  9.48646127184076E+00
 cg2d: Sum(rhs),rhsMax =  -7.48473496514634E-08  9.48571598443359E+00
 cg2d: Sum(rhs),rhsMax =  -7.48540713857437E-08  9.48486884714226E+00
 cg2d: Sum(rhs),rhsMax =  -7.48618091961362E-08  9.48391631089758E+00
 cg2d: Sum(rhs),rhsMax =  -7.48703143926832E-08  9.48285664384895E+00
 cg2d: Sum(rhs),rhsMax =  -7.48790469629057E-08  9.48168991622247E+00
 cg2d: Sum(rhs),rhsMax =  -7.48895487845402E-08  9.48041794354397E+00
 cg2d: Sum(rhs),rhsMax =  -7.49003561395511E-08  9.47904418707887E+00
 cg2d: Sum(rhs),rhsMax =  -7.49121227272553E-08  9.47757361133926E+00
 cg2d: Sum(rhs),rhsMax =  -7.49249196019264E-08  9.47601250495736E+00
 cg2d: Sum(rhs),rhsMax =  -7.49377875308710E-08  9.47436827146146E+00
 cg2d: Sum(rhs),rhsMax =   4.22887694639940E-07  9.47264925366719E+00
 cg2d: Sum(rhs),rhsMax =   4.22967090685233E-07  9.47086429514372E+00
 cg2d: Sum(rhs),rhsMax =   4.23049414166599E-07  9.46902278035931E+00
 cg2d: Sum(rhs),rhsMax =   4.23133926119590E-07  9.46713417765821E+00
 cg2d: Sum(rhs),rhsMax =   4.23219731260360E-07  9.46520785153170E+00
 cg2d: Sum(rhs),rhsMax =   4.23307156438568E-07  9.46325281171763E+00
 cg2d: Sum(rhs),rhsMax =   4.23395718485153E-07  9.46127750356233E+00
 cg2d: Sum(rhs),rhsMax =   4.23484344480585E-07  9.45928962819277E+00
 cg2d: Sum(rhs),rhsMax =   4.23573723651316E-07  9.45729597506147E+00
 cg2d: Sum(rhs),rhsMax =   4.23662484649867E-07  9.45530231970627E+00
 cg2d: Sum(rhs),rhsMax =   4.22887694639940E-07  9.47264925366719E+00
 cg2d: Sum(rhs),rhsMax =   4.22967090685233E-07  9.47086429514372E+00
 cg2d: Sum(rhs),rhsMax =   4.23049414166599E-07  9.46902278035931E+00
 cg2d: Sum(rhs),rhsMax =   4.23133926119590E-07  9.46713417765821E+00
 cg2d: Sum(rhs),rhsMax =   4.23219731260360E-07  9.46520785153170E+00
 cg2d: Sum(rhs),rhsMax =   4.23307156438568E-07  9.46325281171763E+00
 cg2d: Sum(rhs),rhsMax =   4.23395718485153E-07  9.46127750356233E+00
 cg2d: Sum(rhs),rhsMax =   4.23484344480585E-07  9.45928962819277E+00
 cg2d: Sum(rhs),rhsMax =   4.23573723651316E-07  9.45729597506147E+00
 cg2d: Sum(rhs),rhsMax =   9.40750034317261E-07  9.45530244475267E+00
(PID.TID 0000.0001) // =======================================================
(PID.TID 0000.0001) // Begin AD_MONITOR dynamic field statistics
(PID.TID 0000.0001) // =======================================================
(PID.TID 0000.0001) %MON ad_time_tsnumber             =               3600360
(PID.TID 0000.0001) %MON ad_time_secondsf             =   1.5553555200000E+11
(PID.TID 0000.0001) %MON ad_dynstat_adeta_max         =   8.6490404814211E+02
(PID.TID 0000.0001) %MON ad_dynstat_adeta_min         =  -4.4342709042639E+03
(PID.TID 0000.0001) %MON ad_dynstat_adeta_mean        =  -4.4374541094392E+01
(PID.TID 0000.0001) %MON ad_dynstat_adeta_sd          =   8.7431888299626E+02
(PID.TID 0000.0001) %MON ad_dynstat_adeta_del2        =   8.0278223937071E+00
(PID.TID 0000.0001) %MON ad_dynstat_aduvel_max        =   2.9346669402155E+04
(PID.TID 0000.0001) %MON ad_dynstat_aduvel_min        =  -1.3953382456412E+04
(PID.TID 0000.0001) %MON ad_dynstat_aduvel_mean       =   9.9963073916329E+01
(PID.TID 0000.0001) %MON ad_dynstat_aduvel_sd         =   9.4111384702863E+02
(PID.TID 0000.0001) %MON ad_dynstat_aduvel_del2       =   3.9796092916123E+00
(PID.TID 0000.0001) %MON ad_dynstat_advvel_max        =   1.3426605579304E+04
(PID.TID 0000.0001) %MON ad_dynstat_advvel_min        =  -1.1918462648294E+04
(PID.TID 0000.0001) %MON ad_dynstat_advvel_mean       =  -3.3970364253696E+01
(PID.TID 0000.0001) %MON ad_dynstat_advvel_sd         =   9.3781490588103E+02
(PID.TID 0000.0001) %MON ad_dynstat_advvel_del2       =   3.9938147204015E+00
(PID.TID 0000.0001) %MON ad_dynstat_adwvel_max        =   6.8900458232412E+03
(PID.TID 0000.0001) %MON ad_dynstat_adwvel_min        =  -6.4252814768598E+04
(PID.TID 0000.0001) %MON ad_dynstat_adwvel_mean       =  -1.9508391386239E+00
(PID.TID 0000.0001) %MON ad_dynstat_adwvel_sd         =   1.9502944173851E+02
(PID.TID 0000.0001) %MON ad_dynstat_adwvel_del2       =   5.6983085588167E+00
(PID.TID 0000.0001) %MON ad_dynstat_adtheta_max       =   2.9244941760771E+03
(PID.TID 0000.0001) %MON ad_dynstat_adtheta_min       =  -3.3043521437648E+03
(PID.TID 0000.0001) %MON ad_dynstat_adtheta_mean      =   1.0846261554472E+00
(PID.TID 0000.0001) %MON ad_dynstat_adtheta_sd        =   2.1930315792276E+02
(PID.TID 0000.0001) %MON ad_dynstat_adtheta_del2      =   6.9271137152264E-01
(PID.TID 0000.0001) %MON ad_dynstat_adsalt_max        =   1.5014899094659E+04
(PID.TID 0000.0001) %MON ad_dynstat_adsalt_min        =  -1.3970116130331E+04
(PID.TID 0000.0001) %MON ad_dynstat_adsalt_mean       =  -5.8625881224137E+00
(PID.TID 0000.0001) %MON ad_dynstat_adsalt_sd         =   1.1622391187877E+03
(PID.TID 0000.0001) %MON ad_dynstat_adsalt_del2       =   3.5204532975683E+00
(PID.TID 0000.0001) %MON ad_dynstat_adsst_max         =   1.4903627327306E+01
(PID.TID 0000.0001) %MON ad_dynstat_adsst_min         =  -7.1117202747279E+00
(PID.TID 0000.0001) %MON ad_dynstat_adsst_mean        =   4.5841792909715E-02
(PID.TID 0000.0001) %MON ad_dynstat_adsst_sd          =   1.9640027576606E+00
(PID.TID 0000.0001) %MON ad_dynstat_adsst_del2        =   2.4549158709366E-02
(PID.TID 0000.0001) %MON ad_dynstat_adsss_max         =   2.0235374906123E+01
(PID.TID 0000.0001) %MON ad_dynstat_adsss_min         =  -5.8031822682793E+01
(PID.TID 0000.0001) %MON ad_dynstat_adsss_mean        =   7.7576347446797E-02
(PID.TID 0000.0001) %MON ad_dynstat_adsss_sd          =   5.9808485461605E+00
(PID.TID 0000.0001) %MON ad_dynstat_adsss_del2        =   7.8215694713560E-02
(PID.TID 0000.0001) %MON ad_forcing_adqnet_max        =   0.0000000000000E+00
(PID.TID 0000.0001) %MON ad_forcing_adqnet_min        =   0.0000000000000E+00
(PID.TID 0000.0001) %MON ad_forcing_adqnet_mean       =   0.0000000000000E+00
(PID.TID 0000.0001) %MON ad_forcing_adqnet_sd         =   0.0000000000000E+00
(PID.TID 0000.0001) %MON ad_forcing_adqnet_del2       =   0.0000000000000E+00
(PID.TID 0000.0001) %MON ad_forcing_adqsw_max         =   9.7412781035040E-02
(PID.TID 0000.0001) %MON ad_forcing_adqsw_min         =  -2.8597066573897E-01
(PID.TID 0000.0001) %MON ad_forcing_adqsw_mean        =  -8.0610100252031E-04
(PID.TID 0000.0001) %MON ad_forcing_adqsw_sd          =   2.0843718558782E-02
(PID.TID 0000.0001) %MON ad_forcing_adqsw_del2        =   2.7507681148723E-04
(PID.TID 0000.0001) %MON ad_forcing_adempmr_max       =   0.0000000000000E+00
(PID.TID 0000.0001) %MON ad_forcing_adempmr_min       =   0.0000000000000E+00
(PID.TID 0000.0001) %MON ad_forcing_adempmr_mean      =   0.0000000000000E+00
(PID.TID 0000.0001) %MON ad_forcing_adempmr_sd        =   0.0000000000000E+00
(PID.TID 0000.0001) %MON ad_forcing_adempmr_del2      =   0.0000000000000E+00
(PID.TID 0000.0001) %MON ad_forcing_adfu_max          =   0.0000000000000E+00
(PID.TID 0000.0001) %MON ad_forcing_adfu_min          =   0.0000000000000E+00
(PID.TID 0000.0001) %MON ad_forcing_adfu_mean         =   0.0000000000000E+00
(PID.TID 0000.0001) %MON ad_forcing_adfu_sd           =   0.0000000000000E+00
(PID.TID 0000.0001) %MON ad_forcing_adfu_del2         =   0.0000000000000E+00
(PID.TID 0000.0001) %MON ad_forcing_adfv_max          =   0.0000000000000E+00
(PID.TID 0000.0001) %MON ad_forcing_adfv_min          =   0.0000000000000E+00
(PID.TID 0000.0001) %MON ad_forcing_adfv_mean         =   0.0000000000000E+00
(PID.TID 0000.0001) %MON ad_forcing_adfv_sd           =   0.0000000000000E+00
(PID.TID 0000.0001) %MON ad_forcing_adfv_del2         =   0.0000000000000E+00
(PID.TID 0000.0001) // =======================================================
(PID.TID 0000.0001) // End AD_MONITOR dynamic field statistics
(PID.TID 0000.0001) // =======================================================
(PID.TID 0000.0001) // =======================================================
(PID.TID 0000.0001) // Begin AD_MONITOR ptracer field statistics
(PID.TID 0000.0001) // =======================================================
(PID.TID 0000.0001) %MON ad_trcstat_adptracer01_max   =   0.0000000000000E+00
(PID.TID 0000.0001) %MON ad_trcstat_adptracer01_min   =   0.0000000000000E+00
(PID.TID 0000.0001) %MON ad_trcstat_adptracer01_mean  =   0.0000000000000E+00
(PID.TID 0000.0001) %MON ad_trcstat_adptracer01_sd    =   0.0000000000000E+00
(PID.TID 0000.0001) %MON ad_trcstat_adptracer01_del2  =   0.0000000000000E+00
(PID.TID 0000.0001) %MON ad_trcstat_adptracer02_max   =   0.0000000000000E+00
(PID.TID 0000.0001) %MON ad_trcstat_adptracer02_min   =   0.0000000000000E+00
(PID.TID 0000.0001) %MON ad_trcstat_adptracer02_mean  =   0.0000000000000E+00
(PID.TID 0000.0001) %MON ad_trcstat_adptracer02_sd    =   0.0000000000000E+00
(PID.TID 0000.0001) %MON ad_trcstat_adptracer02_del2  =   0.0000000000000E+00
(PID.TID 0000.0001) %MON ad_trcstat_adptracer03_max   =   3.7037717755945E-20
(PID.TID 0000.0001) %MON ad_trcstat_adptracer03_min   =  -1.2092439442047E-21
(PID.TID 0000.0001) %MON ad_trcstat_adptracer03_mean  =   7.0052312383249E-26
(PID.TID 0000.0001) %MON ad_trcstat_adptracer03_sd    =   5.1244211699284E-23
(PID.TID 0000.0001) %MON ad_trcstat_adptracer03_del2  =   6.3123480573138E-25
(PID.TID 0000.0001) %MON ad_trcstat_adptracer04_max   =   1.3106306327217E+06
(PID.TID 0000.0001) %MON ad_trcstat_adptracer04_min   =  -1.5413382205954E+07
(PID.TID 0000.0001) %MON ad_trcstat_adptracer04_mean  =  -1.4522270379005E+05
(PID.TID 0000.0001) %MON ad_trcstat_adptracer04_sd    =   1.2878529879942E+06
(PID.TID 0000.0001) %MON ad_trcstat_adptracer04_del2  =   2.7601515009542E+03
(PID.TID 0000.0001) %MON ad_trcstat_adptracer05_max   =   7.4034851621153E+05
(PID.TID 0000.0001) %MON ad_trcstat_adptracer05_min   =  -6.4888154561947E+04
(PID.TID 0000.0001) %MON ad_trcstat_adptracer05_mean  =   7.0898667534749E+03
(PID.TID 0000.0001) %MON ad_trcstat_adptracer05_sd    =   6.2754463131355E+04
(PID.TID 0000.0001) %MON ad_trcstat_adptracer05_del2  =   1.3531421963302E+02
(PID.TID 0000.0001) %MON ad_trcstat_adptracer06_max   =   8.2545195522699E+09
(PID.TID 0000.0001) %MON ad_trcstat_adptracer06_min   =  -5.1963778828117E+09
(PID.TID 0000.0001) %MON ad_trcstat_adptracer06_mean  =   4.7098254064204E+06
(PID.TID 0000.0001) %MON ad_trcstat_adptracer06_sd    =   2.4960165585704E+08
(PID.TID 0000.0001) %MON ad_trcstat_adptracer06_del2  =   1.1437784403338E+06
(PID.TID 0000.0001) %MON ad_trcstat_adptracer07_max   =   0.0000000000000E+00
(PID.TID 0000.0001) %MON ad_trcstat_adptracer07_min   =   0.0000000000000E+00
(PID.TID 0000.0001) %MON ad_trcstat_adptracer07_mean  =   0.0000000000000E+00
(PID.TID 0000.0001) %MON ad_trcstat_adptracer07_sd    =   0.0000000000000E+00
(PID.TID 0000.0001) %MON ad_trcstat_adptracer07_del2  =   0.0000000000000E+00
(PID.TID 0000.0001) %MON ad_trcstat_adptracer08_max   =   0.0000000000000E+00
(PID.TID 0000.0001) %MON ad_trcstat_adptracer08_min   =   0.0000000000000E+00
(PID.TID 0000.0001) %MON ad_trcstat_adptracer08_mean  =   0.0000000000000E+00
(PID.TID 0000.0001) %MON ad_trcstat_adptracer08_sd    =   0.0000000000000E+00
(PID.TID 0000.0001) %MON ad_trcstat_adptracer08_del2  =   0.0000000000000E+00
(PID.TID 0000.0001) %MON ad_trcstat_adptracer09_max   =   0.0000000000000E+00
(PID.TID 0000.0001) %MON ad_trcstat_adptracer09_min   =   0.0000000000000E+00
(PID.TID 0000.0001) %MON ad_trcstat_adptracer09_mean  =   0.0000000000000E+00
(PID.TID 0000.0001) %MON ad_trcstat_adptracer09_sd    =   0.0000000000000E+00
(PID.TID 0000.0001) %MON ad_trcstat_adptracer09_del2  =   0.0000000000000E+00
(PID.TID 0000.0001) // =======================================================
(PID.TID 0000.0001) // End AD_MONITOR ptracer field statistics
(PID.TID 0000.0001) // =======================================================
 cg2d: Sum(rhs),rhsMax =   7.36166683168449E-12  4.13716196054511E-02
 cg2d: Sum(rhs),rhsMax =   4.22887694639940E-07  9.47264925366719E+00
 cg2d: Sum(rhs),rhsMax =   4.22967090685233E-07  9.47086429514372E+00
 cg2d: Sum(rhs),rhsMax =   4.23049414166599E-07  9.46902278035931E+00
 cg2d: Sum(rhs),rhsMax =   4.23133926119590E-07  9.46713417765821E+00
 cg2d: Sum(rhs),rhsMax =   4.23219731260360E-07  9.46520785153170E+00
 cg2d: Sum(rhs),rhsMax =   4.23307156438568E-07  9.46325281171763E+00
 cg2d: Sum(rhs),rhsMax =   4.23395718485153E-07  9.46127750356233E+00
 cg2d: Sum(rhs),rhsMax =   4.23484344480585E-07  9.45928962819277E+00
 cg2d: Sum(rhs),rhsMax =   3.03373788312911E-07  9.45729585377703E+00
 cg2d: Sum(rhs),rhsMax =   7.77067299395640E-12  3.95565939125880E-02
 cg2d: Sum(rhs),rhsMax =   4.22887694639940E-07  9.47264925366719E+00
 cg2d: Sum(rhs),rhsMax =   4.22967090685233E-07  9.47086429514372E+00
 cg2d: Sum(rhs),rhsMax =   4.23049414166599E-07  9.46902278035931E+00
 cg2d: Sum(rhs),rhsMax =   4.23133926119590E-07  9.46713417765821E+00
 cg2d: Sum(rhs),rhsMax =   4.23219731260360E-07  9.46520785153170E+00
 cg2d: Sum(rhs),rhsMax =   4.23307156438568E-07  9.46325281171763E+00
 cg2d: Sum(rhs),rhsMax =   4.23395718485153E-07  9.46127750356233E+00
 cg2d: Sum(rhs),rhsMax =   1.65296325604913E-06  9.45928996506111E+00
 cg2d: Sum(rhs),rhsMax =   8.21365198078183E-12  3.77883634238337E-02
 cg2d: Sum(rhs),rhsMax =   4.22887694639940E-07  9.47264925366719E+00
 cg2d: Sum(rhs),rhsMax =   4.22967090685233E-07  9.47086429514372E+00
 cg2d: Sum(rhs),rhsMax =   4.23049414166599E-07  9.46902278035931E+00
 cg2d: Sum(rhs),rhsMax =   4.23133926119590E-07  9.46713417765821E+00
 cg2d: Sum(rhs),rhsMax =   4.23219731260360E-07  9.46520785153170E+00
 cg2d: Sum(rhs),rhsMax =   4.23307156438568E-07  9.46325281171763E+00
 cg2d: Sum(rhs),rhsMax =   8.85450873511218E-07  9.46127724213648E+00
 cg2d: Sum(rhs),rhsMax =   8.36042346463728E-12  3.69208197045537E-02
 cg2d: Sum(rhs),rhsMax =   4.22887694639940E-07  9.47264925366719E+00
 cg2d: Sum(rhs),rhsMax =   4.22967090685233E-07  9.47086429514372E+00
 cg2d: Sum(rhs),rhsMax =   4.23049414166599E-07  9.46902278035931E+00
 cg2d: Sum(rhs),rhsMax =   4.23133926119590E-07  9.46713417765821E+00
 cg2d: Sum(rhs),rhsMax =   4.23219731260360E-07  9.46520785153170E+00
 cg2d: Sum(rhs),rhsMax =  -3.73955515442503E-07  9.46325311462039E+00
 cg2d: Sum(rhs),rhsMax =   8.46833714263084E-12  3.67303874010308E-02
 cg2d: Sum(rhs),rhsMax =   4.22887694639940E-07  9.47264925366719E+00
 cg2d: Sum(rhs),rhsMax =   4.22967090685233E-07  9.47086429514372E+00
 cg2d: Sum(rhs),rhsMax =   4.23049414166599E-07  9.46902278035931E+00
 cg2d: Sum(rhs),rhsMax =   4.23133926119590E-07  9.46713417765821E+00
 cg2d: Sum(rhs),rhsMax =   7.38681556811116E-07  9.46520821713467E+00
 cg2d: Sum(rhs),rhsMax =   8.27515833634607E-12  3.73711084400071E-02
 cg2d: Sum(rhs),rhsMax =   4.22887694639940E-07  9.47264925366719E+00
 cg2d: Sum(rhs),rhsMax =   4.22967090685233E-07  9.47086429514372E+00
 cg2d: Sum(rhs),rhsMax =   4.23049414166599E-07  9.46902278035931E+00
 cg2d: Sum(rhs),rhsMax =   1.21106191386389E-06  9.46713452499082E+00
 cg2d: Sum(rhs),rhsMax =   8.19766476922723E-12  3.78468941230881E-02
 cg2d: Sum(rhs),rhsMax =   4.22887694639940E-07  9.47264925366719E+00
 cg2d: Sum(rhs),rhsMax =   4.22967090685233E-07  9.47086429514372E+00
 cg2d: Sum(rhs),rhsMax =   7.63740217735176E-08  9.46902301633810E+00
 cg2d: Sum(rhs),rhsMax =   8.08930700202382E-12  3.80823991080818E-02
 cg2d: Sum(rhs),rhsMax =   4.22887694639940E-07  9.47264925366719E+00
 cg2d: Sum(rhs),rhsMax =   4.49615228603761E-07  9.47086443225345E+00
 cg2d: Sum(rhs),rhsMax =   8.11573031000989E-12  3.83022338632825E-02
 cg2d: Sum(rhs),rhsMax =   4.22887652007375E-07  9.47264925375360E+00
 cg2d: Sum(rhs),rhsMax =   8.04356581340926E-12  3.85932380748962E-02
 cg2d: Sum(rhs),rhsMax =  -7.46576347410155E-08  9.50907671569018E+00
 cg2d: Sum(rhs),rhsMax =  -7.46636956705515E-08  9.50827538007810E+00
 cg2d: Sum(rhs),rhsMax =  -7.46696002806857E-08  9.50759038673436E+00
 cg2d: Sum(rhs),rhsMax =  -7.46738635371003E-08  9.50702164848735E+00
 cg2d: Sum(rhs),rhsMax =  -7.46774944104800E-08  9.50656668487862E+00
 cg2d: Sum(rhs),rhsMax =  -7.46800878914655E-08  9.50622069715104E+00
 cg2d: Sum(rhs),rhsMax =  -7.46821626762539E-08  9.50597670066013E+00
 cg2d: Sum(rhs),rhsMax =  -7.46832924392038E-08  9.50582571630982E+00
 cg2d: Sum(rhs),rhsMax =  -7.46840456145037E-08  9.50575700943737E+00
 cg2d: Sum(rhs),rhsMax =  -7.46835624454434E-08  9.50575837107225E+00
 cg2d: Sum(rhs),rhsMax =  -7.46833208609132E-08  9.50581645922263E+00
 cg2d: Sum(rhs),rhsMax =  -7.46821982033907E-08  9.50591711991761E+00
 cg2d: Sum(rhs),rhsMax =  -7.46813526575352E-08  9.50604571310823E+00
 cg2d: Sum(rhs),rhsMax =  -7.46798960449269E-08  9.50618745972881E+00
 cg2d: Sum(rhs),rhsMax =  -7.46791073424902E-08  9.50632780119137E+00
 cg2d: Sum(rhs),rhsMax =  -7.46779846849677E-08  9.50645275158785E+00
 cg2d: Sum(rhs),rhsMax =  -7.46776720461639E-08  9.50654922994562E+00
 cg2d: Sum(rhs),rhsMax =  -7.46771249282574E-08  9.50660536798306E+00
 cg2d: Sum(rhs),rhsMax =  -7.46771320336848E-08  9.50661078108177E+00
 cg2d: Sum(rhs),rhsMax =  -7.46778141547111E-08  9.50655679154863E+00
 cg2d: Sum(rhs),rhsMax =  -7.46784394323186E-08  9.50643658250018E+00
 cg2d: Sum(rhs),rhsMax =  -7.46802726325768E-08  9.50624530490270E+00
 cg2d: Sum(rhs),rhsMax =  -7.46821271491172E-08  9.50598009866199E+00
 cg2d: Sum(rhs),rhsMax =  -7.46850545851885E-08  9.50564005870858E+00
 cg2d: Sum(rhs),rhsMax =  -7.46883372926277E-08  9.50522619443621E+00
 cg2d: Sum(rhs),rhsMax =  -7.46918829008791E-08  9.50474133855045E+00
 cg2d: Sum(rhs),rhsMax =  -7.46962030007126E-08  9.50418990415982E+00
 cg2d: Sum(rhs),rhsMax =  -7.47013260138374E-08  9.50357767429962E+00
 cg2d: Sum(rhs),rhsMax =  -7.47062216532868E-08  9.50291163791579E+00
 cg2d: Sum(rhs),rhsMax =  -7.47126236433360E-08  9.50219980056318E+00
 cg2d: Sum(rhs),rhsMax =  -7.47184074612051E-08  9.50145094748729E+00
 cg2d: Sum(rhs),rhsMax =  -7.47247455024080E-08  9.50067438045622E+00
 cg2d: Sum(rhs),rhsMax =  -7.47313322335685E-08  9.49987965703835E+00
 cg2d: Sum(rhs),rhsMax =  -7.47377768561819E-08  9.49907634096511E+00
 cg2d: Sum(rhs),rhsMax =  -7.47441433190943E-08  9.49827377465974E+00
 cg2d: Sum(rhs),rhsMax =  -7.47505310982888E-08  9.49748086980356E+00
 cg2d: Sum(rhs),rhsMax =  -7.47569046666285E-08  9.49670591827534E+00
 cg2d: Sum(rhs),rhsMax =  -7.47627666441986E-08  9.49595642566026E+00
 cg2d: Sum(rhs),rhsMax =  -7.47686570434780E-08  9.49523896197083E+00
 cg2d: Sum(rhs),rhsMax =  -7.47742205930990E-08  9.49455904201468E+00
 cg2d: Sum(rhs),rhsMax =  -7.47793578170786E-08  9.49392104808525E+00
 cg2d: Sum(rhs),rhsMax =  -7.47843102999468E-08  9.49332815058320E+00
 cg2d: Sum(rhs),rhsMax =  -7.47889217223019E-08  9.49278226320107E+00
 cg2d: Sum(rhs),rhsMax =  -7.47930855027334E-08  9.49228403703651E+00
 cg2d: Sum(rhs),rhsMax =  -7.47963611047453E-08  9.49183288684206E+00
 cg2d: Sum(rhs),rhsMax =  -7.48000417161165E-08  9.49142705076112E+00
 cg2d: Sum(rhs),rhsMax =  -7.48029052033417E-08  9.49106366991647E+00
 cg2d: Sum(rhs),rhsMax =  -7.48058113231309E-08  9.49073888097194E+00
 cg2d: Sum(rhs),rhsMax =  -7.48079642676203E-08  9.49044792286002E+00
 cg2d: Sum(rhs),rhsMax =  -7.48104369563407E-08  9.49018527463466E+00
 EXTERNAL_FIELDS_LOAD, it=   3600330 : Reading new data, i0,i1=    6    7 (prev=    5    7 )
 DIC_FIELDS_LOAD, it=   3600330 : Reading new data, i0,i1=    6    7 (prev=    5    6 )
 cg2d: Sum(rhs),rhsMax =  -7.48125685845480E-08  9.48994481428126E+00
 cg2d: Sum(rhs),rhsMax =  -7.48145367879260E-08  9.48970977028949E+00
 cg2d: Sum(rhs),rhsMax =  -7.48167536812616E-08  9.48946667050908E+00
 cg2d: Sum(rhs),rhsMax =  -7.48186579357935E-08  9.48920195983684E+00
 cg2d: Sum(rhs),rhsMax =  -7.48212727330611E-08  9.48890231838115E+00
 cg2d: Sum(rhs),rhsMax =  -7.48240864822947E-08  9.48855490239494E+00
 cg2d: Sum(rhs),rhsMax =  -7.48277528828112E-08  9.48814760448955E+00
 cg2d: Sum(rhs),rhsMax =  -7.48317106058494E-08  9.48766929469714E+00
 cg2d: Sum(rhs),rhsMax =  -7.48361301816658E-08  9.48711003726197E+00
 cg2d: Sum(rhs),rhsMax =  -7.48412745110727E-08  9.48646127184076E+00
 cg2d: Sum(rhs),rhsMax =  -1.75208946018302E-07  9.48571620648058E+00
 cg2d: Sum(rhs),rhsMax =  -1.75224855070155E-07  9.48486904493937E+00
 cg2d: Sum(rhs),rhsMax =  -1.75242483635429E-07  9.48391644308839E+00
 cg2d: Sum(rhs),rhsMax =  -1.75262108825791E-07  9.48285664976945E+00
 cg2d: Sum(rhs),rhsMax =  -1.75283638270685E-07  9.48168972746508E+00
 cg2d: Sum(rhs),rhsMax =  -1.75307121708101E-07  9.48041749552160E+00
 cg2d: Sum(rhs),rhsMax =  -1.75332779406290E-07  9.47904342767004E+00
 cg2d: Sum(rhs),rhsMax =  -1.75360213461317E-07  9.47757250613110E+00
 cg2d: Sum(rhs),rhsMax =  -1.75389217815791E-07  9.47601103907858E+00
 cg2d: Sum(rhs),rhsMax =  -1.75419529568899E-07  9.47436644817681E+00
 cg2d: Sum(rhs),rhsMax =  -1.75208946018302E-07  9.48571620648058E+00
 cg2d: Sum(rhs),rhsMax =  -1.75224855070155E-07  9.48486904493937E+00
 cg2d: Sum(rhs),rhsMax =  -1.75242483635429E-07  9.48391644308839E+00
 cg2d: Sum(rhs),rhsMax =  -1.75262108825791E-07  9.48285664976945E+00
 cg2d: Sum(rhs),rhsMax =  -1.75283638270685E-07  9.48168972746508E+00
 cg2d: Sum(rhs),rhsMax =  -1.75307121708101E-07  9.48041749552160E+00
 cg2d: Sum(rhs),rhsMax =  -1.75332779406290E-07  9.47904342767004E+00
 cg2d: Sum(rhs),rhsMax =  -1.75360213461317E-07  9.47757250613110E+00
 cg2d: Sum(rhs),rhsMax =  -1.75389217815791E-07  9.47601103907858E+00
 cg2d: Sum(rhs),rhsMax =   2.81546590485959E-08  9.47436662236611E+00
 cg2d: Sum(rhs),rhsMax =   7.99071919743710E-12  3.88262996888733E-02
 cg2d: Sum(rhs),rhsMax =  -1.75208946018302E-07  9.48571620648058E+00
 cg2d: Sum(rhs),rhsMax =  -1.75224855070155E-07  9.48486904493937E+00
 cg2d: Sum(rhs),rhsMax =  -1.75242483635429E-07  9.48391644308839E+00
 cg2d: Sum(rhs),rhsMax =  -1.75262108825791E-07  9.48285664976945E+00
 cg2d: Sum(rhs),rhsMax =  -1.75283638270685E-07  9.48168972746508E+00
 cg2d: Sum(rhs),rhsMax =  -1.75307121708101E-07  9.48041749552160E+00
 cg2d: Sum(rhs),rhsMax =  -1.75332779406290E-07  9.47904342767004E+00
 cg2d: Sum(rhs),rhsMax =  -1.75360213461317E-07  9.47757250613110E+00
 cg2d: Sum(rhs),rhsMax =  -3.61410457117017E-10  9.47601106514105E+00
 cg2d: Sum(rhs),rhsMax =   8.01669841621333E-12  3.88914789415017E-02
 cg2d: Sum(rhs),rhsMax =  -1.75208946018302E-07  9.48571620648058E+00
 cg2d: Sum(rhs),rhsMax =  -1.75224855070155E-07  9.48486904493937E+00
 cg2d: Sum(rhs),rhsMax =  -1.75242483635429E-07  9.48391644308839E+00
 cg2d: Sum(rhs),rhsMax =  -1.75262108825791E-07  9.48285664976945E+00
 cg2d: Sum(rhs),rhsMax =  -1.75283638270685E-07  9.48168972746508E+00
 cg2d: Sum(rhs),rhsMax =  -1.75307121708101E-07  9.48041749552160E+00
 cg2d: Sum(rhs),rhsMax =  -1.75332779406290E-07  9.47904342767004E+00
 cg2d: Sum(rhs),rhsMax =   9.97125887636230E-07  9.47757278768448E+00
 cg2d: Sum(rhs),rhsMax =   8.03512811842211E-12  3.87742446959007E-02
 cg2d: Sum(rhs),rhsMax =  -1.75208946018302E-07  9.48571620648058E+00
 cg2d: Sum(rhs),rhsMax =  -1.75224855070155E-07  9.48486904493937E+00
 cg2d: Sum(rhs),rhsMax =  -1.75242483635429E-07  9.48391644308839E+00
 cg2d: Sum(rhs),rhsMax =  -1.75262108825791E-07  9.48285664976945E+00
 cg2d: Sum(rhs),rhsMax =  -1.75283638270685E-07  9.48168972746508E+00
 cg2d: Sum(rhs),rhsMax =  -1.75307121708101E-07  9.48041749552160E+00
 cg2d: Sum(rhs),rhsMax =  -5.58915580484154E-07  9.47904365939358E+00
 cg2d: Sum(rhs),rhsMax =   8.07243161204951E-12  3.85114928275819E-02
 cg2d: Sum(rhs),rhsMax =  -1.75208946018302E-07  9.48571620648058E+00
 cg2d: Sum(rhs),rhsMax =  -1.75224855070155E-07  9.48486904493937E+00
 cg2d: Sum(rhs),rhsMax =  -1.75242483635429E-07  9.48391644308839E+00
 cg2d: Sum(rhs),rhsMax =  -1.75262108825791E-07  9.48285664976945E+00
 cg2d: Sum(rhs),rhsMax =  -1.75283638270685E-07  9.48168972746508E+00
 cg2d: Sum(rhs),rhsMax =  -3.82625415795701E-07  9.48041766035055E+00
 cg2d: Sum(rhs),rhsMax =   8.19655454620261E-12  3.81306165063971E-02
 cg2d: Sum(rhs),rhsMax =  -1.75208946018302E-07  9.48571620648058E+00
 cg2d: Sum(rhs),rhsMax =  -1.75224855070155E-07  9.48486904493937E+00
 cg2d: Sum(rhs),rhsMax =  -1.75242483635429E-07  9.48391644308839E+00
 cg2d: Sum(rhs),rhsMax =  -1.75262108825791E-07  9.48285664976945E+00
 cg2d: Sum(rhs),rhsMax =  -3.71679291788496E-07  9.48168939662927E+00
 cg2d: Sum(rhs),rhsMax =   8.30402413498632E-12  3.76466938780458E-02
 cg2d: Sum(rhs),rhsMax =  -1.75208946018302E-07  9.48571620648058E+00
 cg2d: Sum(rhs),rhsMax =  -1.75224855070155E-07  9.48486904493937E+00
 cg2d: Sum(rhs),rhsMax =  -1.75242483635429E-07  9.48391644308839E+00
 cg2d: Sum(rhs),rhsMax =   1.08455047609368E-07  9.48285641470376E+00
 cg2d: Sum(rhs),rhsMax =   8.43880521017581E-12  3.73026882751609E-02
 cg2d: Sum(rhs),rhsMax =  -1.75208946018302E-07  9.48571620648058E+00
 cg2d: Sum(rhs),rhsMax =  -1.75224855070155E-07  9.48486904493937E+00
 cg2d: Sum(rhs),rhsMax =  -2.62418851093571E-08  9.48391619598081E+00
 cg2d: Sum(rhs),rhsMax =   7.66653407424656E-12  4.08586987680585E-02
 cg2d: Sum(rhs),rhsMax =  -1.75208946018302E-07  9.48571620648058E+00
 cg2d: Sum(rhs),rhsMax =   4.49123859880274E-07  9.48486927397236E+00
 cg2d: Sum(rhs),rhsMax =   7.24265092344467E-12  4.32254450450545E-02
 cg2d: Sum(rhs),rhsMax =  -1.75208938912874E-07  9.48571620641258E+00
 cg2d: Sum(rhs),rhsMax =   7.20978832191577E-12  4.32054113458353E-02
 cg2d: Sum(rhs),rhsMax =  -7.46576347410155E-08  9.50907671569018E+00
 cg2d: Sum(rhs),rhsMax =  -7.46636956705515E-08  9.50827538007810E+00
 cg2d: Sum(rhs),rhsMax =  -7.46696002806857E-08  9.50759038673436E+00
 cg2d: Sum(rhs),rhsMax =  -7.46738635371003E-08  9.50702164848735E+00
 cg2d: Sum(rhs),rhsMax =  -7.46774944104800E-08  9.50656668487862E+00
 cg2d: Sum(rhs),rhsMax =  -7.46800878914655E-08  9.50622069715104E+00
 cg2d: Sum(rhs),rhsMax =  -7.46821626762539E-08  9.50597670066013E+00
 cg2d: Sum(rhs),rhsMax =  -7.46832924392038E-08  9.50582571630982E+00
 cg2d: Sum(rhs),rhsMax =  -7.46840456145037E-08  9.50575700943737E+00
 cg2d: Sum(rhs),rhsMax =  -7.46835624454434E-08  9.50575837107225E+00
 cg2d: Sum(rhs),rhsMax =  -7.46833208609132E-08  9.50581645922263E+00
 cg2d: Sum(rhs),rhsMax =  -7.46821982033907E-08  9.50591711991761E+00
 cg2d: Sum(rhs),rhsMax =  -7.46813526575352E-08  9.50604571310823E+00
 cg2d: Sum(rhs),rhsMax =  -7.46798960449269E-08  9.50618745972881E+00
 cg2d: Sum(rhs),rhsMax =  -7.46791073424902E-08  9.50632780119137E+00
 cg2d: Sum(rhs),rhsMax =  -7.46779846849677E-08  9.50645275158785E+00
 cg2d: Sum(rhs),rhsMax =  -7.46776720461639E-08  9.50654922994562E+00
 cg2d: Sum(rhs),rhsMax =  -7.46771249282574E-08  9.50660536798306E+00
 cg2d: Sum(rhs),rhsMax =  -7.46771320336848E-08  9.50661078108177E+00
 cg2d: Sum(rhs),rhsMax =  -7.46778141547111E-08  9.50655679154863E+00
 cg2d: Sum(rhs),rhsMax =  -7.46784394323186E-08  9.50643658250018E+00
 cg2d: Sum(rhs),rhsMax =  -7.46802726325768E-08  9.50624530490270E+00
 cg2d: Sum(rhs),rhsMax =  -7.46821271491172E-08  9.50598009866199E+00
 cg2d: Sum(rhs),rhsMax =  -7.46850545851885E-08  9.50564005870858E+00
 cg2d: Sum(rhs),rhsMax =  -7.46883372926277E-08  9.50522619443621E+00
 cg2d: Sum(rhs),rhsMax =  -7.46918829008791E-08  9.50474133855045E+00
 cg2d: Sum(rhs),rhsMax =  -7.46962030007126E-08  9.50418990415982E+00
 cg2d: Sum(rhs),rhsMax =  -7.47013260138374E-08  9.50357767429962E+00
 cg2d: Sum(rhs),rhsMax =  -7.47062216532868E-08  9.50291163791579E+00
 cg2d: Sum(rhs),rhsMax =  -7.47126236433360E-08  9.50219980056318E+00
 cg2d: Sum(rhs),rhsMax =  -7.47184074612051E-08  9.50145094748729E+00
 cg2d: Sum(rhs),rhsMax =  -7.47247455024080E-08  9.50067438045622E+00
 cg2d: Sum(rhs),rhsMax =  -7.47313322335685E-08  9.49987965703835E+00
 cg2d: Sum(rhs),rhsMax =  -7.47377768561819E-08  9.49907634096511E+00
 cg2d: Sum(rhs),rhsMax =  -7.47441433190943E-08  9.49827377465974E+00
 cg2d: Sum(rhs),rhsMax =  -7.47505310982888E-08  9.49748086980356E+00
 cg2d: Sum(rhs),rhsMax =  -7.47569046666285E-08  9.49670591827534E+00
 cg2d: Sum(rhs),rhsMax =  -7.47627666441986E-08  9.49595642566026E+00
 cg2d: Sum(rhs),rhsMax =  -7.47686570434780E-08  9.49523896197083E+00
 cg2d: Sum(rhs),rhsMax =  -7.47742205930990E-08  9.49455904201468E+00
 cg2d: Sum(rhs),rhsMax =  -7.47793578170786E-08  9.49392104808525E+00
 cg2d: Sum(rhs),rhsMax =  -7.47843102999468E-08  9.49332815058320E+00
 cg2d: Sum(rhs),rhsMax =  -7.47889217223019E-08  9.49278226320107E+00
 cg2d: Sum(rhs),rhsMax =  -7.47930855027334E-08  9.49228403703651E+00
 cg2d: Sum(rhs),rhsMax =  -7.47963611047453E-08  9.49183288684206E+00
 cg2d: Sum(rhs),rhsMax =  -7.48000417161165E-08  9.49142705076112E+00
 cg2d: Sum(rhs),rhsMax =  -7.48029052033417E-08  9.49106366991647E+00
 cg2d: Sum(rhs),rhsMax =  -7.48058113231309E-08  9.49073888097194E+00
 cg2d: Sum(rhs),rhsMax =  -7.48079642676203E-08  9.49044792286002E+00
 cg2d: Sum(rhs),rhsMax =  -7.48104369563407E-08  9.49018527463466E+00
 EXTERNAL_FIELDS_LOAD, it=   3600330 : Reading new data, i0,i1=    6    7 (prev=    5    7 )
 DIC_FIELDS_LOAD, it=   3600330 : Reading new data, i0,i1=    6    7 (prev=    5    6 )
 cg2d: Sum(rhs),rhsMax =  -4.94691008157133E-07  9.48994514995963E+00
 cg2d: Sum(rhs),rhsMax =  -4.94703286335607E-07  9.48971010026718E+00
 cg2d: Sum(rhs),rhsMax =  -4.94716026366859E-07  9.48946700885436E+00
 cg2d: Sum(rhs),rhsMax =  -4.94729889055634E-07  9.48920232378188E+00
 cg2d: Sum(rhs),rhsMax =  -4.94745734158641E-07  9.48890272393605E+00
 cg2d: Sum(rhs),rhsMax =  -4.94763916947250E-07  9.48855536326370E+00
 cg2d: Sum(rhs),rhsMax =  -4.94785417970434E-07  9.48814813231678E+00
 cg2d: Sum(rhs),rhsMax =  -4.94810450391014E-07  9.48766989873470E+00
 cg2d: Sum(rhs),rhsMax =  -4.94839781595147E-07  9.48711072318769E+00
 cg2d: Sum(rhs),rhsMax =  -4.94873646061933E-07  9.48646204057875E+00
 EXTERNAL_FIELDS_LOAD, it=   3600330 : Reading new data, i0,i1=    6    7 (prev=    5    7 )
 DIC_FIELDS_LOAD, it=   3600330 : Reading new data, i0,i1=    6    7 (prev=    5    6 )
 cg2d: Sum(rhs),rhsMax =  -4.94691008157133E-07  9.48994514995963E+00
 cg2d: Sum(rhs),rhsMax =  -4.94703286335607E-07  9.48971010026718E+00
 cg2d: Sum(rhs),rhsMax =  -4.94716026366859E-07  9.48946700885436E+00
 cg2d: Sum(rhs),rhsMax =  -4.94729889055634E-07  9.48920232378188E+00
 cg2d: Sum(rhs),rhsMax =  -4.94745734158641E-07  9.48890272393605E+00
 cg2d: Sum(rhs),rhsMax =  -4.94763916947250E-07  9.48855536326370E+00
 cg2d: Sum(rhs),rhsMax =  -4.94785417970434E-07  9.48814813231678E+00
 cg2d: Sum(rhs),rhsMax =  -4.94810450391014E-07  9.48766989873470E+00
 cg2d: Sum(rhs),rhsMax =  -4.94839781595147E-07  9.48711072318769E+00
 cg2d: Sum(rhs),rhsMax =   5.26424223323829E-07  9.48646231087668E+00
 cg2d: Sum(rhs),rhsMax =   7.54085682785899E-12  4.16926143035449E-02
 EXTERNAL_FIELDS_LOAD, it=   3600330 : Reading new data, i0,i1=    6    7 (prev=    5    7 )
 DIC_FIELDS_LOAD, it=   3600330 : Reading new data, i0,i1=    6    7 (prev=    5    6 )
 cg2d: Sum(rhs),rhsMax =  -4.94691008157133E-07  9.48994514995963E+00
 cg2d: Sum(rhs),rhsMax =  -4.94703286335607E-07  9.48971010026718E+00
 cg2d: Sum(rhs),rhsMax =  -4.94716026366859E-07  9.48946700885436E+00
 cg2d: Sum(rhs),rhsMax =  -4.94729889055634E-07  9.48920232378188E+00
 cg2d: Sum(rhs),rhsMax =  -4.94745734158641E-07  9.48890272393605E+00
 cg2d: Sum(rhs),rhsMax =  -4.94763916947250E-07  9.48855536326370E+00
 cg2d: Sum(rhs),rhsMax =  -4.94785417970434E-07  9.48814813231678E+00
 cg2d: Sum(rhs),rhsMax =  -4.94810450391014E-07  9.48766989873470E+00
 cg2d: Sum(rhs),rhsMax =   6.05017994814716E-07  9.48711045565056E+00
 cg2d: Sum(rhs),rhsMax =   7.87014897696281E-12  3.97463483550366E-02
 EXTERNAL_FIELDS_LOAD, it=   3600330 : Reading new data, i0,i1=    6    7 (prev=    5    7 )
 DIC_FIELDS_LOAD, it=   3600330 : Reading new data, i0,i1=    6    7 (prev=    5    6 )
 cg2d: Sum(rhs),rhsMax =  -4.94691008157133E-07  9.48994514995963E+00
 cg2d: Sum(rhs),rhsMax =  -4.94703286335607E-07  9.48971010026718E+00
 cg2d: Sum(rhs),rhsMax =  -4.94716026366859E-07  9.48946700885436E+00
 cg2d: Sum(rhs),rhsMax =  -4.94729889055634E-07  9.48920232378188E+00
 cg2d: Sum(rhs),rhsMax =  -4.94745734158641E-07  9.48890272393605E+00
 cg2d: Sum(rhs),rhsMax =  -4.94763916947250E-07  9.48855536326370E+00
 cg2d: Sum(rhs),rhsMax =  -4.94785417970434E-07  9.48814813231678E+00
 cg2d: Sum(rhs),rhsMax =  -2.15228581623705E-08  9.48767006070217E+00
 cg2d: Sum(rhs),rhsMax =   8.24917911756984E-12  3.78634433581913E-02
 EXTERNAL_FIELDS_LOAD, it=   3600330 : Reading new data, i0,i1=    6    7 (prev=    5    7 )
 DIC_FIELDS_LOAD, it=   3600330 : Reading new data, i0,i1=    6    7 (prev=    5    6 )
 cg2d: Sum(rhs),rhsMax =  -4.94691008157133E-07  9.48994514995963E+00
 cg2d: Sum(rhs),rhsMax =  -4.94703286335607E-07  9.48971010026718E+00
 cg2d: Sum(rhs),rhsMax =  -4.94716026366859E-07  9.48946700885436E+00
 cg2d: Sum(rhs),rhsMax =  -4.94729889055634E-07  9.48920232378188E+00
 cg2d: Sum(rhs),rhsMax =  -4.94745734158641E-07  9.48890272393605E+00
 cg2d: Sum(rhs),rhsMax =  -4.94763916947250E-07  9.48855536326370E+00
 cg2d: Sum(rhs),rhsMax =  -3.52103207035270E-07  9.48814832415722E+00
 cg2d: Sum(rhs),rhsMax =   8.46256398290279E-12  3.67837924648850E-02
 EXTERNAL_FIELDS_LOAD, it=   3600330 : Reading new data, i0,i1=    6    7 (prev=    5    7 )
 DIC_FIELDS_LOAD, it=   3600330 : Reading new data, i0,i1=    6    7 (prev=    5    6 )
 cg2d: Sum(rhs),rhsMax =  -4.94691008157133E-07  9.48994514995963E+00
 cg2d: Sum(rhs),rhsMax =  -4.94703286335607E-07  9.48971010026718E+00
 cg2d: Sum(rhs),rhsMax =  -4.94716026366859E-07  9.48946700885436E+00
 cg2d: Sum(rhs),rhsMax =  -4.94729889055634E-07  9.48920232378188E+00
 cg2d: Sum(rhs),rhsMax =  -4.94745734158641E-07  9.48890272393605E+00
 cg2d: Sum(rhs),rhsMax =  -8.50839072086274E-07  9.48855571766643E+00
 cg2d: Sum(rhs),rhsMax =   8.50319814560407E-12  3.67273450741013E-02
 EXTERNAL_FIELDS_LOAD, it=   3600330 : Reading new data, i0,i1=    6    7 (prev=    5    7 )
 DIC_FIELDS_LOAD, it=   3600330 : Reading new data, i0,i1=    6    7 (prev=    5    6 )
 cg2d: Sum(rhs),rhsMax =  -4.94691008157133E-07  9.48994514995963E+00
 cg2d: Sum(rhs),rhsMax =  -4.94703286335607E-07  9.48971010026718E+00
 cg2d: Sum(rhs),rhsMax =  -4.94716026366859E-07  9.48946700885436E+00
 cg2d: Sum(rhs),rhsMax =  -4.94729889055634E-07  9.48920232378188E+00
 cg2d: Sum(rhs),rhsMax =  -1.06710832881163E-06  9.48890292512156E+00
 cg2d: Sum(rhs),rhsMax =   8.25828294637176E-12  3.77697541929712E-02
 EXTERNAL_FIELDS_LOAD, it=   3600330 : Reading new data, i0,i1=    6    7 (prev=    5    7 )
 DIC_FIELDS_LOAD, it=   3600330 : Reading new data, i0,i1=    6    7 (prev=    5    6 )
 cg2d: Sum(rhs),rhsMax =  -4.94691008157133E-07  9.48994514995963E+00
 cg2d: Sum(rhs),rhsMax =  -4.94703286335607E-07  9.48971010026718E+00
 cg2d: Sum(rhs),rhsMax =  -4.94716026366859E-07  9.48946700885436E+00
 cg2d: Sum(rhs),rhsMax =  -7.87040349337076E-07  9.48920243737539E+00
 cg2d: Sum(rhs),rhsMax =   8.09086131425829E-12  3.86283711447119E-02
 EXTERNAL_FIELDS_LOAD, it=   3600330 : Reading new data, i0,i1=    6    7 (prev=    5    7 )
 DIC_FIELDS_LOAD, it=   3600330 : Reading new data, i0,i1=    6    7 (prev=    5    6 )
 cg2d: Sum(rhs),rhsMax =  -4.94691008157133E-07  9.48994514995963E+00
 cg2d: Sum(rhs),rhsMax =  -4.94703286335607E-07  9.48971010026718E+00
 cg2d: Sum(rhs),rhsMax =  -1.77794553479771E-06  9.48946699612300E+00
 cg2d: Sum(rhs),rhsMax =   7.92899079726794E-12  3.92361905407360E-02
 EXTERNAL_FIELDS_LOAD, it=   3600330 : Reading new data, i0,i1=    6    7 (prev=    5    7 )
 DIC_FIELDS_LOAD, it=   3600330 : Reading new data, i0,i1=    6    7 (prev=    5    6 )
 cg2d: Sum(rhs),rhsMax =  -4.94691008157133E-07  9.48994514995963E+00
 cg2d: Sum(rhs),rhsMax =  -1.18674994098455E-06  9.48971038240488E+00
 cg2d: Sum(rhs),rhsMax =   7.89035503601099E-12  3.95773770025395E-02
 EXTERNAL_FIELDS_LOAD, it=   3600330 : Reading new data, i0,i1=    6    7 (prev=    5    7 )
 DIC_FIELDS_LOAD, it=   3600330 : Reading new data, i0,i1=    6    7 (prev=    5    6 )
 cg2d: Sum(rhs),rhsMax =  -4.94690844732304E-07  9.48994514980821E+00
 cg2d: Sum(rhs),rhsMax =   7.81641418257095E-12  3.96766673580459E-02
 cg2d: Sum(rhs),rhsMax =  -7.46576347410155E-08  9.50907671569018E+00
 cg2d: Sum(rhs),rhsMax =  -7.46636956705515E-08  9.50827538007810E+00
 cg2d: Sum(rhs),rhsMax =  -7.46696002806857E-08  9.50759038673436E+00
 cg2d: Sum(rhs),rhsMax =  -7.46738635371003E-08  9.50702164848735E+00
 cg2d: Sum(rhs),rhsMax =  -7.46774944104800E-08  9.50656668487862E+00
 cg2d: Sum(rhs),rhsMax =  -7.46800878914655E-08  9.50622069715104E+00
 cg2d: Sum(rhs),rhsMax =  -7.46821626762539E-08  9.50597670066013E+00
 cg2d: Sum(rhs),rhsMax =  -7.46832924392038E-08  9.50582571630982E+00
 cg2d: Sum(rhs),rhsMax =  -7.46840456145037E-08  9.50575700943737E+00
 cg2d: Sum(rhs),rhsMax =  -7.46835624454434E-08  9.50575837107225E+00
 cg2d: Sum(rhs),rhsMax =  -7.46833208609132E-08  9.50581645922263E+00
 cg2d: Sum(rhs),rhsMax =  -7.46821982033907E-08  9.50591711991761E+00
 cg2d: Sum(rhs),rhsMax =  -7.46813526575352E-08  9.50604571310823E+00
 cg2d: Sum(rhs),rhsMax =  -7.46798960449269E-08  9.50618745972881E+00
 cg2d: Sum(rhs),rhsMax =  -7.46791073424902E-08  9.50632780119137E+00
 cg2d: Sum(rhs),rhsMax =  -7.46779846849677E-08  9.50645275158785E+00
 cg2d: Sum(rhs),rhsMax =  -7.46776720461639E-08  9.50654922994562E+00
 cg2d: Sum(rhs),rhsMax =  -7.46771249282574E-08  9.50660536798306E+00
 cg2d: Sum(rhs),rhsMax =  -7.46771320336848E-08  9.50661078108177E+00
 cg2d: Sum(rhs),rhsMax =  -7.46778141547111E-08  9.50655679154863E+00
 cg2d: Sum(rhs),rhsMax =  -7.46784394323186E-08  9.50643658250018E+00
 cg2d: Sum(rhs),rhsMax =  -7.46802726325768E-08  9.50624530490270E+00
 cg2d: Sum(rhs),rhsMax =  -7.46821271491172E-08  9.50598009866199E+00
 cg2d: Sum(rhs),rhsMax =  -7.46850545851885E-08  9.50564005870858E+00
 cg2d: Sum(rhs),rhsMax =  -7.46883372926277E-08  9.50522619443621E+00
 cg2d: Sum(rhs),rhsMax =  -7.46918829008791E-08  9.50474133855045E+00
 cg2d: Sum(rhs),rhsMax =  -7.46962030007126E-08  9.50418990415982E+00
 cg2d: Sum(rhs),rhsMax =  -7.47013260138374E-08  9.50357767429962E+00
 cg2d: Sum(rhs),rhsMax =  -7.47062216532868E-08  9.50291163791579E+00
 cg2d: Sum(rhs),rhsMax =  -7.47126236433360E-08  9.50219980056318E+00
 cg2d: Sum(rhs),rhsMax =  -7.47184074612051E-08  9.50145094748729E+00
 cg2d: Sum(rhs),rhsMax =  -7.47247455024080E-08  9.50067438045622E+00
 cg2d: Sum(rhs),rhsMax =  -7.47313322335685E-08  9.49987965703835E+00
 cg2d: Sum(rhs),rhsMax =  -7.47377768561819E-08  9.49907634096511E+00
 cg2d: Sum(rhs),rhsMax =  -7.47441433190943E-08  9.49827377465974E+00
 cg2d: Sum(rhs),rhsMax =  -7.47505310982888E-08  9.49748086980356E+00
 cg2d: Sum(rhs),rhsMax =  -7.47569046666285E-08  9.49670591827534E+00
 cg2d: Sum(rhs),rhsMax =  -7.47627666441986E-08  9.49595642566026E+00
 cg2d: Sum(rhs),rhsMax =  -7.47686570434780E-08  9.49523896197083E+00
 cg2d: Sum(rhs),rhsMax =  -7.47742205930990E-08  9.49455904201468E+00
 cg2d: Sum(rhs),rhsMax =   9.46372651355887E-07  9.49392067685572E+00
 cg2d: Sum(rhs),rhsMax =   9.46431448767271E-07  9.49332777168478E+00
 cg2d: Sum(rhs),rhsMax =   9.46485755548565E-07  9.49278186505416E+00
 cg2d: Sum(rhs),rhsMax =   9.46535521961778E-07  9.49228362292172E+00
 cg2d: Sum(rhs),rhsMax =   9.46579781668788E-07  9.49183247529552E+00
 cg2d: Sum(rhs),rhsMax =   9.46620325237291E-07  9.49142667125012E+00
 cg2d: Sum(rhs),rhsMax =   9.46656619760233E-07  9.49106335844447E+00
 cg2d: Sum(rhs),rhsMax =   9.46688523129069E-07  9.49073867659998E+00
 cg2d: Sum(rhs),rhsMax =   9.46717641170380E-07  9.49044786474730E+00
 cg2d: Sum(rhs),rhsMax =   9.46743718088783E-07  9.49018539939230E+00
 cg2d: Sum(rhs),rhsMax =   9.46372651355887E-07  9.49392067685572E+00
 cg2d: Sum(rhs),rhsMax =   9.46431448767271E-07  9.49332777168478E+00
 cg2d: Sum(rhs),rhsMax =   9.46485755548565E-07  9.49278186505416E+00
 cg2d: Sum(rhs),rhsMax =   9.46535521961778E-07  9.49228362292172E+00
 cg2d: Sum(rhs),rhsMax =   9.46579781668788E-07  9.49183247529552E+00
 cg2d: Sum(rhs),rhsMax =   9.46620325237291E-07  9.49142667125012E+00
 cg2d: Sum(rhs),rhsMax =   9.46656619760233E-07  9.49106335844447E+00
 cg2d: Sum(rhs),rhsMax =   9.46688523129069E-07  9.49073867659998E+00
 cg2d: Sum(rhs),rhsMax =   9.46717641170380E-07  9.49044786474730E+00
 cg2d: Sum(rhs),rhsMax =   1.04407145329333E-06  9.49018530094384E+00
 cg2d: Sum(rhs),rhsMax =   7.87481191366624E-12  3.95680555626973E-02
 cg2d: Sum(rhs),rhsMax =   9.46372651355887E-07  9.49392067685572E+00
 cg2d: Sum(rhs),rhsMax =   9.46431448767271E-07  9.49332777168478E+00
 cg2d: Sum(rhs),rhsMax =   9.46485755548565E-07  9.49278186505416E+00
 cg2d: Sum(rhs),rhsMax =   9.46535521961778E-07  9.49228362292172E+00
 cg2d: Sum(rhs),rhsMax =   9.46579781668788E-07  9.49183247529552E+00
 cg2d: Sum(rhs),rhsMax =   9.46620325237291E-07  9.49142667125012E+00
 cg2d: Sum(rhs),rhsMax =   9.46656619760233E-07  9.49106335844447E+00
 cg2d: Sum(rhs),rhsMax =   9.46688523129069E-07  9.49073867659998E+00
 cg2d: Sum(rhs),rhsMax =   1.82714167351605E-06  9.49044814474181E+00
 cg2d: Sum(rhs),rhsMax =   7.88746845614696E-12  3.93302947812094E-02
 cg2d: Sum(rhs),rhsMax =   9.46372651355887E-07  9.49392067685572E+00
 cg2d: Sum(rhs),rhsMax =   9.46431448767271E-07  9.49332777168478E+00
 cg2d: Sum(rhs),rhsMax =   9.46485755548565E-07  9.49278186505416E+00
 cg2d: Sum(rhs),rhsMax =   9.46535521961778E-07  9.49228362292172E+00
 cg2d: Sum(rhs),rhsMax =   9.46579781668788E-07  9.49183247529552E+00
 cg2d: Sum(rhs),rhsMax =   9.46620325237291E-07  9.49142667125012E+00
 cg2d: Sum(rhs),rhsMax =   9.46656619760233E-07  9.49106335844447E+00
 cg2d: Sum(rhs),rhsMax =   1.05529971961005E-06  9.49073839684849E+00
 cg2d: Sum(rhs),rhsMax =   7.84705633805061E-12  3.90120889754913E-02
 cg2d: Sum(rhs),rhsMax =   9.46372651355887E-07  9.49392067685572E+00
 cg2d: Sum(rhs),rhsMax =   9.46431448767271E-07  9.49332777168478E+00
 cg2d: Sum(rhs),rhsMax =   9.46485755548565E-07  9.49278186505416E+00
 cg2d: Sum(rhs),rhsMax =   9.46535521961778E-07  9.49228362292172E+00
 cg2d: Sum(rhs),rhsMax =   9.46579781668788E-07  9.49183247529552E+00
 cg2d: Sum(rhs),rhsMax =   9.46620325237291E-07  9.49142667125012E+00
 cg2d: Sum(rhs),rhsMax =   7.13174934219296E-07  9.49106301757998E+00
 cg2d: Sum(rhs),rhsMax =   7.79154518681935E-12  3.98214067507827E-02
 cg2d: Sum(rhs),rhsMax =   9.46372651355887E-07  9.49392067685572E+00
 cg2d: Sum(rhs),rhsMax =   9.46431448767271E-07  9.49332777168478E+00
 cg2d: Sum(rhs),rhsMax =   9.46485755548565E-07  9.49278186505416E+00
 cg2d: Sum(rhs),rhsMax =   9.46535521961778E-07  9.49228362292172E+00
 cg2d: Sum(rhs),rhsMax =   9.46579781668788E-07  9.49183247529552E+00
 cg2d: Sum(rhs),rhsMax =   1.26609761963437E-06  9.49142678860208E+00
 cg2d: Sum(rhs),rhsMax =   7.24131865581512E-12  4.26281692730561E-02
 cg2d: Sum(rhs),rhsMax =   9.46372651355887E-07  9.49392067685572E+00
 cg2d: Sum(rhs),rhsMax =   9.46431448767271E-07  9.49332777168478E+00
 cg2d: Sum(rhs),rhsMax =   9.46485755548565E-07  9.49278186505416E+00
 cg2d: Sum(rhs),rhsMax =   9.46535521961778E-07  9.49228362292172E+00
 cg2d: Sum(rhs),rhsMax =   2.97753054212535E-07  9.49183228364058E+00
 cg2d: Sum(rhs),rhsMax =   7.35234095827764E-12  4.14794968149528E-02
 cg2d: Sum(rhs),rhsMax =   9.46372651355887E-07  9.49392067685572E+00
 cg2d: Sum(rhs),rhsMax =   9.46431448767271E-07  9.49332777168478E+00
 cg2d: Sum(rhs),rhsMax =   9.46485755548565E-07  9.49278186505416E+00
 cg2d: Sum(rhs),rhsMax =  -6.17790014700859E-07  9.49228368725449E+00
 cg2d: Sum(rhs),rhsMax =   7.75757236226582E-12  3.95162036242208E-02
 cg2d: Sum(rhs),rhsMax =   9.46372651355887E-07  9.49392067685572E+00
 cg2d: Sum(rhs),rhsMax =   9.46431448767271E-07  9.49332777168478E+00
 cg2d: Sum(rhs),rhsMax =   7.32781664680715E-07  9.49278218466048E+00
 cg2d: Sum(rhs),rhsMax =   7.96518406787072E-12  3.88200469157382E-02
 cg2d: Sum(rhs),rhsMax =   9.46372651355887E-07  9.49392067685572E+00
 cg2d: Sum(rhs),rhsMax =   7.53322396462863E-07  9.49332744080138E+00
 cg2d: Sum(rhs),rhsMax =   7.58637597186862E-12  4.02967095986582E-02
 cg2d: Sum(rhs),rhsMax =   9.46372558985331E-07  9.49392067626554E+00
 cg2d: Sum(rhs),rhsMax =   7.35833616261061E-12  4.16271060355434E-02
 cg2d: Sum(rhs),rhsMax =  -7.46576347410155E-08  9.50907671569018E+00
 cg2d: Sum(rhs),rhsMax =  -7.46636956705515E-08  9.50827538007810E+00
 cg2d: Sum(rhs),rhsMax =  -7.46696002806857E-08  9.50759038673436E+00
 cg2d: Sum(rhs),rhsMax =  -7.46738635371003E-08  9.50702164848735E+00
 cg2d: Sum(rhs),rhsMax =  -7.46774944104800E-08  9.50656668487862E+00
 cg2d: Sum(rhs),rhsMax =  -7.46800878914655E-08  9.50622069715104E+00
 cg2d: Sum(rhs),rhsMax =  -7.46821626762539E-08  9.50597670066013E+00
 cg2d: Sum(rhs),rhsMax =  -7.46832924392038E-08  9.50582571630982E+00
 cg2d: Sum(rhs),rhsMax =  -7.46840456145037E-08  9.50575700943737E+00
 cg2d: Sum(rhs),rhsMax =  -7.46835624454434E-08  9.50575837107225E+00
 cg2d: Sum(rhs),rhsMax =  -7.46833208609132E-08  9.50581645922263E+00
 cg2d: Sum(rhs),rhsMax =  -7.46821982033907E-08  9.50591711991761E+00
 cg2d: Sum(rhs),rhsMax =  -7.46813526575352E-08  9.50604571310823E+00
 cg2d: Sum(rhs),rhsMax =  -7.46798960449269E-08  9.50618745972881E+00
 cg2d: Sum(rhs),rhsMax =  -7.46791073424902E-08  9.50632780119137E+00
 cg2d: Sum(rhs),rhsMax =  -7.46779846849677E-08  9.50645275158785E+00
 cg2d: Sum(rhs),rhsMax =  -7.46776720461639E-08  9.50654922994562E+00
 cg2d: Sum(rhs),rhsMax =  -7.46771249282574E-08  9.50660536798306E+00
 cg2d: Sum(rhs),rhsMax =  -7.46771320336848E-08  9.50661078108177E+00
 cg2d: Sum(rhs),rhsMax =  -7.46778141547111E-08  9.50655679154863E+00
 cg2d: Sum(rhs),rhsMax =  -7.46784394323186E-08  9.50643658250018E+00
 cg2d: Sum(rhs),rhsMax =  -7.46802726325768E-08  9.50624530490270E+00
 cg2d: Sum(rhs),rhsMax =  -7.46821271491172E-08  9.50598009866199E+00
 cg2d: Sum(rhs),rhsMax =  -7.46850545851885E-08  9.50564005870858E+00
 cg2d: Sum(rhs),rhsMax =  -7.46883372926277E-08  9.50522619443621E+00
 cg2d: Sum(rhs),rhsMax =  -7.46918829008791E-08  9.50474133855045E+00
 cg2d: Sum(rhs),rhsMax =  -7.46962030007126E-08  9.50418990415982E+00
 cg2d: Sum(rhs),rhsMax =  -7.47013260138374E-08  9.50357767429962E+00
 cg2d: Sum(rhs),rhsMax =  -7.47062216532868E-08  9.50291163791579E+00
 cg2d: Sum(rhs),rhsMax =  -7.47126236433360E-08  9.50219980056318E+00
 cg2d: Sum(rhs),rhsMax =  -4.01900202007255E-07  9.50145070213090E+00
 cg2d: Sum(rhs),rhsMax =  -4.01933206717331E-07  9.50067414054694E+00
 cg2d: Sum(rhs),rhsMax =  -4.01967078289545E-07  9.49987939401186E+00
 cg2d: Sum(rhs),rhsMax =  -4.02001262500562E-07  9.49907600678565E+00
 cg2d: Sum(rhs),rhsMax =  -4.02035375657306E-07  9.49827331871224E+00
 cg2d: Sum(rhs),rhsMax =  -4.02068899063579E-07  9.49748024946242E+00
 cg2d: Sum(rhs),rhsMax =  -4.02102180885322E-07  9.49670510050300E+00
 cg2d: Sum(rhs),rhsMax =  -4.02133785826209E-07  9.49595538422671E+00
 cg2d: Sum(rhs),rhsMax =  -4.02164424428975E-07  9.49523767468940E+00
 cg2d: Sum(rhs),rhsMax =  -4.02193307991183E-07  9.49455748964688E+00
 cg2d: Sum(rhs),rhsMax =  -4.01900202007255E-07  9.50145070213090E+00
 cg2d: Sum(rhs),rhsMax =  -4.01933206717331E-07  9.50067414054694E+00
 cg2d: Sum(rhs),rhsMax =  -4.01967078289545E-07  9.49987939401186E+00
 cg2d: Sum(rhs),rhsMax =  -4.02001262500562E-07  9.49907600678565E+00
 cg2d: Sum(rhs),rhsMax =  -4.02035375657306E-07  9.49827331871224E+00
 cg2d: Sum(rhs),rhsMax =  -4.02068899063579E-07  9.49748024946242E+00
 cg2d: Sum(rhs),rhsMax =  -4.02102180885322E-07  9.49670510050300E+00
 cg2d: Sum(rhs),rhsMax =  -4.02133785826209E-07  9.49595538422671E+00
 cg2d: Sum(rhs),rhsMax =  -4.02164424428975E-07  9.49523767468940E+00
 cg2d: Sum(rhs),rhsMax =   9.20257164693794E-07  9.49455744997083E+00
 cg2d: Sum(rhs),rhsMax =   7.14117653899393E-12  4.27646236126346E-02
 cg2d: Sum(rhs),rhsMax =  -4.01900202007255E-07  9.50145070213090E+00
 cg2d: Sum(rhs),rhsMax =  -4.01933206717331E-07  9.50067414054694E+00
 cg2d: Sum(rhs),rhsMax =  -4.01967078289545E-07  9.49987939401186E+00
 cg2d: Sum(rhs),rhsMax =  -4.02001262500562E-07  9.49907600678565E+00
 cg2d: Sum(rhs),rhsMax =  -4.02035375657306E-07  9.49827331871224E+00
 cg2d: Sum(rhs),rhsMax =  -4.02068899063579E-07  9.49748024946242E+00
 cg2d: Sum(rhs),rhsMax =  -4.02102180885322E-07  9.49670510050300E+00
 cg2d: Sum(rhs),rhsMax =  -4.02133785826209E-07  9.49595538422671E+00
 cg2d: Sum(rhs),rhsMax =  -6.83147383995220E-07  9.49523790189157E+00
 cg2d: Sum(rhs),rhsMax =   6.84718948207319E-12  4.46319651674592E-02
 cg2d: Sum(rhs),rhsMax =  -4.01900202007255E-07  9.50145070213090E+00
 cg2d: Sum(rhs),rhsMax =  -4.01933206717331E-07  9.50067414054694E+00
 cg2d: Sum(rhs),rhsMax =  -4.01967078289545E-07  9.49987939401186E+00
 cg2d: Sum(rhs),rhsMax =  -4.02001262500562E-07  9.49907600678565E+00
 cg2d: Sum(rhs),rhsMax =  -4.02035375657306E-07  9.49827331871224E+00
 cg2d: Sum(rhs),rhsMax =  -4.02068899063579E-07  9.49748024946242E+00
 cg2d: Sum(rhs),rhsMax =  -4.02102180885322E-07  9.49670510050300E+00
 cg2d: Sum(rhs),rhsMax =  -1.16694547358520E-06  9.49595512344525E+00
 cg2d: Sum(rhs),rhsMax =   6.66910970892332E-12  4.54971716240440E-02
 cg2d: Sum(rhs),rhsMax =  -4.01900202007255E-07  9.50145070213090E+00
 cg2d: Sum(rhs),rhsMax =  -4.01933206717331E-07  9.50067414054694E+00
 cg2d: Sum(rhs),rhsMax =  -4.01967078289545E-07  9.49987939401186E+00
 cg2d: Sum(rhs),rhsMax =  -4.02001262500562E-07  9.49907600678565E+00
 cg2d: Sum(rhs),rhsMax =  -4.02035375657306E-07  9.49827331871224E+00
 cg2d: Sum(rhs),rhsMax =  -4.02068899063579E-07  9.49748024946242E+00
 cg2d: Sum(rhs),rhsMax =  -6.69065315150874E-07  9.49670546133781E+00
 cg2d: Sum(rhs),rhsMax =   6.75726141707855E-12  4.54267251388380E-02
 cg2d: Sum(rhs),rhsMax =  -4.01900202007255E-07  9.50145070213090E+00
 cg2d: Sum(rhs),rhsMax =  -4.01933206717331E-07  9.50067414054694E+00
 cg2d: Sum(rhs),rhsMax =  -4.01967078289545E-07  9.49987939401186E+00
 cg2d: Sum(rhs),rhsMax =  -4.02001262500562E-07  9.49907600678565E+00
 cg2d: Sum(rhs),rhsMax =  -4.02035375657306E-07  9.49827331871224E+00
 cg2d: Sum(rhs),rhsMax =   7.12321423179674E-07  9.49748052798795E+00
 cg2d: Sum(rhs),rhsMax =   6.78257450204001E-12  4.49994296242957E-02
 cg2d: Sum(rhs),rhsMax =  -4.01900202007255E-07  9.50145070213090E+00
 cg2d: Sum(rhs),rhsMax =  -4.01933206717331E-07  9.50067414054694E+00
 cg2d: Sum(rhs),rhsMax =  -4.01967078289545E-07  9.49987939401186E+00
 cg2d: Sum(rhs),rhsMax =  -4.02001262500562E-07  9.49907600678565E+00
 cg2d: Sum(rhs),rhsMax =  -2.03468268011875E-07  9.49827331057038E+00
 cg2d: Sum(rhs),rhsMax =   6.80122624885371E-12  4.44990926617629E-02
 cg2d: Sum(rhs),rhsMax =  -4.01900202007255E-07  9.50145070213090E+00
 cg2d: Sum(rhs),rhsMax =  -4.01933206717331E-07  9.50067414054694E+00
 cg2d: Sum(rhs),rhsMax =  -4.01967078289545E-07  9.49987939401186E+00
 cg2d: Sum(rhs),rhsMax =  -2.24079705901659E-07  9.49907583565513E+00
 cg2d: Sum(rhs),rhsMax =   6.84008405471559E-12  4.39217859617678E-02
 cg2d: Sum(rhs),rhsMax =  -4.01900202007255E-07  9.50145070213090E+00
 cg2d: Sum(rhs),rhsMax =  -4.01933206717331E-07  9.50067414054694E+00
 cg2d: Sum(rhs),rhsMax =  -6.44382353698347E-07  9.49987917882104E+00
 cg2d: Sum(rhs),rhsMax =   6.96154245360958E-12  4.32116619936829E-02
 cg2d: Sum(rhs),rhsMax =  -4.01900202007255E-07  9.50145070213090E+00
 cg2d: Sum(rhs),rhsMax =  -9.84135368753414E-08  9.50067417887716E+00
 cg2d: Sum(rhs),rhsMax =   6.96531721189331E-12  4.33635141256030E-02
 cg2d: Sum(rhs),rhsMax =  -4.01900202007255E-07  9.50145070217260E+00
 cg2d: Sum(rhs),rhsMax =   7.13540337926588E-12  4.24422703854524E-02
 cg2d: Sum(rhs),rhsMax =  -7.46576347410155E-08  9.50907671569018E+00
 cg2d: Sum(rhs),rhsMax =  -7.46636956705515E-08  9.50827538007810E+00
 cg2d: Sum(rhs),rhsMax =  -7.46696002806857E-08  9.50759038673436E+00
 cg2d: Sum(rhs),rhsMax =  -7.46738635371003E-08  9.50702164848735E+00
 cg2d: Sum(rhs),rhsMax =  -7.46774944104800E-08  9.50656668487862E+00
 cg2d: Sum(rhs),rhsMax =  -7.46800878914655E-08  9.50622069715104E+00
 cg2d: Sum(rhs),rhsMax =  -7.46821626762539E-08  9.50597670066013E+00
 cg2d: Sum(rhs),rhsMax =  -7.46832924392038E-08  9.50582571630982E+00
 cg2d: Sum(rhs),rhsMax =  -7.46840456145037E-08  9.50575700943737E+00
 cg2d: Sum(rhs),rhsMax =  -7.46835624454434E-08  9.50575837107225E+00
 cg2d: Sum(rhs),rhsMax =  -7.46833208609132E-08  9.50581645922263E+00
 cg2d: Sum(rhs),rhsMax =  -7.46821982033907E-08  9.50591711991761E+00
 cg2d: Sum(rhs),rhsMax =  -7.46813526575352E-08  9.50604571310823E+00
 cg2d: Sum(rhs),rhsMax =  -7.46798960449269E-08  9.50618745972881E+00
 cg2d: Sum(rhs),rhsMax =  -7.46791073424902E-08  9.50632780119137E+00
 cg2d: Sum(rhs),rhsMax =  -7.46779846849677E-08  9.50645275158785E+00
 cg2d: Sum(rhs),rhsMax =  -7.46776720461639E-08  9.50654922994562E+00
 cg2d: Sum(rhs),rhsMax =  -7.46771249282574E-08  9.50660536798306E+00
 cg2d: Sum(rhs),rhsMax =  -7.46771320336848E-08  9.50661078108177E+00
 cg2d: Sum(rhs),rhsMax =  -7.46778141547111E-08  9.50655679154863E+00
 cg2d: Sum(rhs),rhsMax =  -1.33445296768286E-06  9.50643686356278E+00
 cg2d: Sum(rhs),rhsMax =  -1.33447997541225E-06  9.50624553348017E+00
 cg2d: Sum(rhs),rhsMax =  -1.33451721495703E-06  9.50598022038946E+00
 cg2d: Sum(rhs),rhsMax =  -1.33456492790174E-06  9.50564003446544E+00
 cg2d: Sum(rhs),rhsMax =  -1.33462327767120E-06  9.50522600424228E+00
 cg2d: Sum(rhs),rhsMax =  -1.33469153240640E-06  9.50474097557345E+00
 cg2d: Sum(rhs),rhsMax =  -1.33476895314288E-06  9.50418936788339E+00
 cg2d: Sum(rhs),rhsMax =  -1.33485502828989E-06  9.50357696636323E+00
 cg2d: Sum(rhs),rhsMax =  -1.33494865650619E-06  9.50291076036464E+00
 cg2d: Sum(rhs),rhsMax =  -1.33504901356218E-06  9.50219875537148E+00
 cg2d: Sum(rhs),rhsMax =  -1.33445296768286E-06  9.50643686356278E+00
 cg2d: Sum(rhs),rhsMax =  -1.33447997541225E-06  9.50624553348017E+00
 cg2d: Sum(rhs),rhsMax =  -1.33451721495703E-06  9.50598022038946E+00
 cg2d: Sum(rhs),rhsMax =  -1.33456492790174E-06  9.50564003446544E+00
 cg2d: Sum(rhs),rhsMax =  -1.33462327767120E-06  9.50522600424228E+00
 cg2d: Sum(rhs),rhsMax =  -1.33469153240640E-06  9.50474097557345E+00
 cg2d: Sum(rhs),rhsMax =  -1.33476895314288E-06  9.50418936788339E+00
 cg2d: Sum(rhs),rhsMax =  -1.33485502828989E-06  9.50357696636323E+00
 cg2d: Sum(rhs),rhsMax =  -1.33494865650619E-06  9.50291076036464E+00
 cg2d: Sum(rhs),rhsMax =  -1.15885175944186E-06  9.50219897066919E+00
 cg2d: Sum(rhs),rhsMax =   7.35989047484509E-12  4.09094648682630E-02
 cg2d: Sum(rhs),rhsMax =  -1.33445296768286E-06  9.50643686356278E+00
 cg2d: Sum(rhs),rhsMax =  -1.33447997541225E-06  9.50624553348017E+00
 cg2d: Sum(rhs),rhsMax =  -1.33451721495703E-06  9.50598022038946E+00
 cg2d: Sum(rhs),rhsMax =  -1.33456492790174E-06  9.50564003446544E+00
 cg2d: Sum(rhs),rhsMax =  -1.33462327767120E-06  9.50522600424228E+00
 cg2d: Sum(rhs),rhsMax =  -1.33469153240640E-06  9.50474097557345E+00
 cg2d: Sum(rhs),rhsMax =  -1.33476895314288E-06  9.50418936788339E+00
 cg2d: Sum(rhs),rhsMax =  -1.33485502828989E-06  9.50357696636323E+00
 cg2d: Sum(rhs),rhsMax =  -1.38802300853058E-06  9.50291097630758E+00
 cg2d: Sum(rhs),rhsMax =   7.20268289455817E-12  4.13556494538395E-02
 cg2d: Sum(rhs),rhsMax =  -1.33445296768286E-06  9.50643686356278E+00
 cg2d: Sum(rhs),rhsMax =  -1.33447997541225E-06  9.50624553348017E+00
 cg2d: Sum(rhs),rhsMax =  -1.33451721495703E-06  9.50598022038946E+00
 cg2d: Sum(rhs),rhsMax =  -1.33456492790174E-06  9.50564003446544E+00
 cg2d: Sum(rhs),rhsMax =  -1.33462327767120E-06  9.50522600424228E+00
 cg2d: Sum(rhs),rhsMax =  -1.33469153240640E-06  9.50474097557345E+00
 cg2d: Sum(rhs),rhsMax =  -1.33476895314288E-06  9.50418936788339E+00
 cg2d: Sum(rhs),rhsMax =  -4.98646066660058E-07  9.50357720375716E+00
 cg2d: Sum(rhs),rhsMax =   7.12518932743933E-12  4.17600211532836E-02
 cg2d: Sum(rhs),rhsMax =  -1.33445296768286E-06  9.50643686356278E+00
 cg2d: Sum(rhs),rhsMax =  -1.33447997541225E-06  9.50624553348017E+00
 cg2d: Sum(rhs),rhsMax =  -1.33451721495703E-06  9.50598022038946E+00
 cg2d: Sum(rhs),rhsMax =  -1.33456492790174E-06  9.50564003446544E+00
 cg2d: Sum(rhs),rhsMax =  -1.33462327767120E-06  9.50522600424228E+00
 cg2d: Sum(rhs),rhsMax =  -1.33469153240640E-06  9.50474097557345E+00
 cg2d: Sum(rhs),rhsMax =  -1.36047957255414E-06  9.50418963522515E+00
 cg2d: Sum(rhs),rhsMax =   7.06279479345540E-12  4.19976692169849E-02
 cg2d: Sum(rhs),rhsMax =  -1.33445296768286E-06  9.50643686356278E+00
 cg2d: Sum(rhs),rhsMax =  -1.33447997541225E-06  9.50624553348017E+00
 cg2d: Sum(rhs),rhsMax =  -1.33451721495703E-06  9.50598022038946E+00
 cg2d: Sum(rhs),rhsMax =  -1.33456492790174E-06  9.50564003446544E+00
 cg2d: Sum(rhs),rhsMax =  -1.33462327767120E-06  9.50522600424228E+00
 cg2d: Sum(rhs),rhsMax =  -1.48045535297570E-06  9.50474082225731E+00
 cg2d: Sum(rhs),rhsMax =   7.01905200628516E-12  4.20103523770026E-02
 cg2d: Sum(rhs),rhsMax =  -1.33445296768286E-06  9.50643686356278E+00
 cg2d: Sum(rhs),rhsMax =  -1.33447997541225E-06  9.50624553348017E+00
 cg2d: Sum(rhs),rhsMax =  -1.33451721495703E-06  9.50598022038946E+00
 cg2d: Sum(rhs),rhsMax =  -1.33456492790174E-06  9.50564003446544E+00
 cg2d: Sum(rhs),rhsMax =  -2.06920971379532E-06  9.50522621902799E+00
 cg2d: Sum(rhs),rhsMax =   6.99107438606461E-12  4.18358190766208E-02
 cg2d: Sum(rhs),rhsMax =  -1.33445296768286E-06  9.50643686356278E+00
 cg2d: Sum(rhs),rhsMax =  -1.33447997541225E-06  9.50624553348017E+00
 cg2d: Sum(rhs),rhsMax =  -1.33451721495703E-06  9.50598022038946E+00
 cg2d: Sum(rhs),rhsMax =  -1.81993230086164E-06  9.50564031152894E+00
 cg2d: Sum(rhs),rhsMax =   7.07189862225732E-12  4.15398287119909E-02
 cg2d: Sum(rhs),rhsMax =  -1.33445296768286E-06  9.50643686356278E+00
 cg2d: Sum(rhs),rhsMax =  -1.33447997541225E-06  9.50624553348017E+00
 cg2d: Sum(rhs),rhsMax =  -1.63096545691133E-06  9.50598049987212E+00
 cg2d: Sum(rhs),rhsMax =   7.09765579642863E-12  4.12044971572728E-02
 cg2d: Sum(rhs),rhsMax =  -1.33445296768286E-06  9.50643686356278E+00
 cg2d: Sum(rhs),rhsMax =  -1.64846314731903E-06  9.50624563699660E+00
 cg2d: Sum(rhs),rhsMax =   6.83852974248111E-12  4.23750812142809E-02
 cg2d: Sum(rhs),rhsMax =  -1.33445308136970E-06  9.50643686368426E+00
 cg2d: Sum(rhs),rhsMax =   6.41997566219743E-12  4.46954366106708E-02
 cg2d: Sum(rhs),rhsMax =  -7.46576347410155E-08  9.50907671569018E+00
 cg2d: Sum(rhs),rhsMax =  -7.46636956705515E-08  9.50827538007810E+00
 cg2d: Sum(rhs),rhsMax =  -7.46696002806857E-08  9.50759038673436E+00
 cg2d: Sum(rhs),rhsMax =  -7.46738635371003E-08  9.50702164848735E+00
 cg2d: Sum(rhs),rhsMax =  -7.46774944104800E-08  9.50656668487862E+00
 cg2d: Sum(rhs),rhsMax =  -7.46800878914655E-08  9.50622069715104E+00
 cg2d: Sum(rhs),rhsMax =  -7.46821626762539E-08  9.50597670066013E+00
 cg2d: Sum(rhs),rhsMax =  -7.46832924392038E-08  9.50582571630982E+00
 cg2d: Sum(rhs),rhsMax =  -7.46840456145037E-08  9.50575700943737E+00
 cg2d: Sum(rhs),rhsMax =  -7.46835624454434E-08  9.50575837107225E+00
 cg2d: Sum(rhs),rhsMax =  -7.31695358524576E-07  9.50581629998526E+00
 cg2d: Sum(rhs),rhsMax =  -7.31687521238200E-07  9.50591695204419E+00
 cg2d: Sum(rhs),rhsMax =  -7.31677481269344E-07  9.50604550743943E+00
 cg2d: Sum(rhs),rhsMax =  -7.31666375486384E-07  9.50618716919212E+00
 cg2d: Sum(rhs),rhsMax =  -7.31655610763937E-07  9.50632736750795E+00
 cg2d: Sum(rhs),rhsMax =  -7.31646203178116E-07  9.50645211386654E+00
 cg2d: Sum(rhs),rhsMax =  -7.31638586159988E-07  9.50654833204142E+00
 cg2d: Sum(rhs),rhsMax =  -7.31634528960967E-07  9.50660416336835E+00
 cg2d: Sum(rhs),rhsMax =  -7.31634145267890E-07  9.50660923544122E+00
 cg2d: Sum(rhs),rhsMax =  -7.31638571949134E-07  9.50655488361223E+00
 cg2d: Sum(rhs),rhsMax =  -7.31695358524576E-07  9.50581629998526E+00
 cg2d: Sum(rhs),rhsMax =  -7.31687521238200E-07  9.50591695204419E+00
 cg2d: Sum(rhs),rhsMax =  -7.31677481269344E-07  9.50604550743943E+00
 cg2d: Sum(rhs),rhsMax =  -7.31666375486384E-07  9.50618716919212E+00
 cg2d: Sum(rhs),rhsMax =  -7.31655610763937E-07  9.50632736750795E+00
 cg2d: Sum(rhs),rhsMax =  -7.31646203178116E-07  9.50645211386654E+00
 cg2d: Sum(rhs),rhsMax =  -7.31638586159988E-07  9.50654833204142E+00
 cg2d: Sum(rhs),rhsMax =  -7.31634528960967E-07  9.50660416336835E+00
 cg2d: Sum(rhs),rhsMax =  -7.31634145267890E-07  9.50660923544122E+00
 cg2d: Sum(rhs),rhsMax =  -1.91798299908896E-06  9.50655499076410E+00
 cg2d: Sum(rhs),rhsMax =   6.62070398504966E-12  4.40308666636804E-02
 cg2d: Sum(rhs),rhsMax =  -7.31695358524576E-07  9.50581629998526E+00
 cg2d: Sum(rhs),rhsMax =  -7.31687521238200E-07  9.50591695204419E+00
 cg2d: Sum(rhs),rhsMax =  -7.31677481269344E-07  9.50604550743943E+00
 cg2d: Sum(rhs),rhsMax =  -7.31666375486384E-07  9.50618716919212E+00
 cg2d: Sum(rhs),rhsMax =  -7.31655610763937E-07  9.50632736750795E+00
 cg2d: Sum(rhs),rhsMax =  -7.31646203178116E-07  9.50645211386654E+00
 cg2d: Sum(rhs),rhsMax =  -7.31638586159988E-07  9.50654833204142E+00
 cg2d: Sum(rhs),rhsMax =  -7.31634528960967E-07  9.50660416336835E+00
 cg2d: Sum(rhs),rhsMax =   1.07081042699519E-07  9.50660886896397E+00
(PID.TID 0000.0001) // =======================================================
(PID.TID 0000.0001) // Begin AD_MONITOR dynamic field statistics
(PID.TID 0000.0001) // =======================================================
(PID.TID 0000.0001) %MON ad_time_tsnumber             =               3600299
(PID.TID 0000.0001) %MON ad_time_secondsf             =   1.5553291680000E+11
(PID.TID 0000.0001) %MON ad_dynstat_adeta_max         =   9.1417197910809E+02
(PID.TID 0000.0001) %MON ad_dynstat_adeta_min         =  -5.0074468155485E+03
(PID.TID 0000.0001) %MON ad_dynstat_adeta_mean        =  -5.3153128553673E+01
(PID.TID 0000.0001) %MON ad_dynstat_adeta_sd          =   9.9205349075166E+02
(PID.TID 0000.0001) %MON ad_dynstat_adeta_del2        =   8.6477904838852E+00
(PID.TID 0000.0001) %MON ad_dynstat_aduvel_max        =   3.2397428583719E+04
(PID.TID 0000.0001) %MON ad_dynstat_aduvel_min        =  -1.7609560590582E+04
(PID.TID 0000.0001) %MON ad_dynstat_aduvel_mean       =   1.2315040896409E+02
(PID.TID 0000.0001) %MON ad_dynstat_aduvel_sd         =   1.0855432560384E+03
(PID.TID 0000.0001) %MON ad_dynstat_aduvel_del2       =   4.7843844155459E+00
(PID.TID 0000.0001) %MON ad_dynstat_advvel_max        =   1.7490210619088E+04
(PID.TID 0000.0001) %MON ad_dynstat_advvel_min        =  -1.7451401682621E+04
(PID.TID 0000.0001) %MON ad_dynstat_advvel_mean       =  -3.9201444334049E+01
(PID.TID 0000.0001) %MON ad_dynstat_advvel_sd         =   1.1633240325364E+03
(PID.TID 0000.0001) %MON ad_dynstat_advvel_del2       =   4.7667471433543E+00
(PID.TID 0000.0001) %MON ad_dynstat_adwvel_max        =   7.3016168343025E+03
(PID.TID 0000.0001) %MON ad_dynstat_adwvel_min        =  -8.4459990870658E+04
(PID.TID 0000.0001) %MON ad_dynstat_adwvel_mean       =  -2.6293183864392E+00
(PID.TID 0000.0001) %MON ad_dynstat_adwvel_sd         =   2.5851021093960E+02
(PID.TID 0000.0001) %MON ad_dynstat_adwvel_del2       =   7.0680253902551E+00
(PID.TID 0000.0001) %MON ad_dynstat_adtheta_max       =   3.6264452653115E+03
(PID.TID 0000.0001) %MON ad_dynstat_adtheta_min       =  -4.3773284282146E+03
(PID.TID 0000.0001) %MON ad_dynstat_adtheta_mean      =   1.4145261363312E+00
(PID.TID 0000.0001) %MON ad_dynstat_adtheta_sd        =   2.7728674654220E+02
(PID.TID 0000.0001) %MON ad_dynstat_adtheta_del2      =   8.7466379520545E-01
(PID.TID 0000.0001) %MON ad_dynstat_adsalt_max        =   1.9693059283792E+04
(PID.TID 0000.0001) %MON ad_dynstat_adsalt_min        =  -1.7785358096063E+04
(PID.TID 0000.0001) %MON ad_dynstat_adsalt_mean       =  -7.6803194176825E+00
(PID.TID 0000.0001) %MON ad_dynstat_adsalt_sd         =   1.4632623275287E+03
(PID.TID 0000.0001) %MON ad_dynstat_adsalt_del2       =   4.4435197275153E+00
(PID.TID 0000.0001) %MON ad_dynstat_adsst_max         =   1.3937892846160E+01
(PID.TID 0000.0001) %MON ad_dynstat_adsst_min         =  -8.5064284712538E+00
(PID.TID 0000.0001) %MON ad_dynstat_adsst_mean        =   3.5146083942537E-02
(PID.TID 0000.0001) %MON ad_dynstat_adsst_sd          =   2.1142522733798E+00
(PID.TID 0000.0001) %MON ad_dynstat_adsst_del2        =   2.2554893864323E-02
(PID.TID 0000.0001) %MON ad_dynstat_adsss_max         =   1.9447021082000E+01
(PID.TID 0000.0001) %MON ad_dynstat_adsss_min         =  -5.7455166692369E+01
(PID.TID 0000.0001) %MON ad_dynstat_adsss_mean        =   1.4284807060877E-01
(PID.TID 0000.0001) %MON ad_dynstat_adsss_sd          =   6.5641855980589E+00
(PID.TID 0000.0001) %MON ad_dynstat_adsss_del2        =   7.5265219883438E-02
(PID.TID 0000.0001) %MON ad_forcing_adqnet_max        =   0.0000000000000E+00
(PID.TID 0000.0001) %MON ad_forcing_adqnet_min        =   0.0000000000000E+00
(PID.TID 0000.0001) %MON ad_forcing_adqnet_mean       =   0.0000000000000E+00
(PID.TID 0000.0001) %MON ad_forcing_adqnet_sd         =   0.0000000000000E+00
(PID.TID 0000.0001) %MON ad_forcing_adqnet_del2       =   0.0000000000000E+00
(PID.TID 0000.0001) %MON ad_forcing_adqsw_max         =   1.1058373691959E-01
(PID.TID 0000.0001) %MON ad_forcing_adqsw_min         =  -3.8138659801712E-01
(PID.TID 0000.0001) %MON ad_forcing_adqsw_mean        =  -1.4860959636109E-03
(PID.TID 0000.0001) %MON ad_forcing_adqsw_sd          =   2.9780428799337E-02
(PID.TID 0000.0001) %MON ad_forcing_adqsw_del2        =   3.7640959957732E-04
(PID.TID 0000.0001) %MON ad_forcing_adempmr_max       =   0.0000000000000E+00
(PID.TID 0000.0001) %MON ad_forcing_adempmr_min       =   0.0000000000000E+00
(PID.TID 0000.0001) %MON ad_forcing_adempmr_mean      =   0.0000000000000E+00
(PID.TID 0000.0001) %MON ad_forcing_adempmr_sd        =   0.0000000000000E+00
(PID.TID 0000.0001) %MON ad_forcing_adempmr_del2      =   0.0000000000000E+00
(PID.TID 0000.0001) %MON ad_forcing_adfu_max          =   0.0000000000000E+00
(PID.TID 0000.0001) %MON ad_forcing_adfu_min          =   0.0000000000000E+00
(PID.TID 0000.0001) %MON ad_forcing_adfu_mean         =   0.0000000000000E+00
(PID.TID 0000.0001) %MON ad_forcing_adfu_sd           =   0.0000000000000E+00
(PID.TID 0000.0001) %MON ad_forcing_adfu_del2         =   0.0000000000000E+00
(PID.TID 0000.0001) %MON ad_forcing_adfv_max          =   0.0000000000000E+00
(PID.TID 0000.0001) %MON ad_forcing_adfv_min          =   0.0000000000000E+00
(PID.TID 0000.0001) %MON ad_forcing_adfv_mean         =   0.0000000000000E+00
(PID.TID 0000.0001) %MON ad_forcing_adfv_sd           =   0.0000000000000E+00
(PID.TID 0000.0001) %MON ad_forcing_adfv_del2         =   0.0000000000000E+00
(PID.TID 0000.0001) // =======================================================
(PID.TID 0000.0001) // End AD_MONITOR dynamic field statistics
(PID.TID 0000.0001) // =======================================================
(PID.TID 0000.0001) // =======================================================
(PID.TID 0000.0001) // Begin AD_MONITOR ptracer field statistics
(PID.TID 0000.0001) // =======================================================
(PID.TID 0000.0001) %MON ad_trcstat_adptracer01_max   =   0.0000000000000E+00
(PID.TID 0000.0001) %MON ad_trcstat_adptracer01_min   =   0.0000000000000E+00
(PID.TID 0000.0001) %MON ad_trcstat_adptracer01_mean  =   0.0000000000000E+00
(PID.TID 0000.0001) %MON ad_trcstat_adptracer01_sd    =   0.0000000000000E+00
(PID.TID 0000.0001) %MON ad_trcstat_adptracer01_del2  =   0.0000000000000E+00
(PID.TID 0000.0001) %MON ad_trcstat_adptracer02_max   =   0.0000000000000E+00
(PID.TID 0000.0001) %MON ad_trcstat_adptracer02_min   =   0.0000000000000E+00
(PID.TID 0000.0001) %MON ad_trcstat_adptracer02_mean  =   0.0000000000000E+00
(PID.TID 0000.0001) %MON ad_trcstat_adptracer02_sd    =   0.0000000000000E+00
(PID.TID 0000.0001) %MON ad_trcstat_adptracer02_del2  =   0.0000000000000E+00
(PID.TID 0000.0001) %MON ad_trcstat_adptracer03_max   =   5.4982315436003E-20
(PID.TID 0000.0001) %MON ad_trcstat_adptracer03_min   =  -9.9991546664711E-21
(PID.TID 0000.0001) %MON ad_trcstat_adptracer03_mean  =  -1.4536651928503E-25
(PID.TID 0000.0001) %MON ad_trcstat_adptracer03_sd    =   9.0462409884048E-23
(PID.TID 0000.0001) %MON ad_trcstat_adptracer03_del2  =   1.0006105955196E-24
(PID.TID 0000.0001) %MON ad_trcstat_adptracer04_max   =   2.3507486260677E+06
(PID.TID 0000.0001) %MON ad_trcstat_adptracer04_min   =  -2.0382653707676E+07
(PID.TID 0000.0001) %MON ad_trcstat_adptracer04_mean  =  -1.9269058530422E+05
(PID.TID 0000.0001) %MON ad_trcstat_adptracer04_sd    =   1.7083143916912E+06
(PID.TID 0000.0001) %MON ad_trcstat_adptracer04_del2  =   3.6480496379043E+03
(PID.TID 0000.0001) %MON ad_trcstat_adptracer05_max   =   8.5590483750366E+05
(PID.TID 0000.0001) %MON ad_trcstat_adptracer05_min   =  -7.8052642916562E+04
(PID.TID 0000.0001) %MON ad_trcstat_adptracer05_mean  =   8.2246816614685E+03
(PID.TID 0000.0001) %MON ad_trcstat_adptracer05_sd    =   7.2635586241600E+04
(PID.TID 0000.0001) %MON ad_trcstat_adptracer05_del2  =   1.5644660961721E+02
(PID.TID 0000.0001) %MON ad_trcstat_adptracer06_max   =   9.2567700943359E+09
(PID.TID 0000.0001) %MON ad_trcstat_adptracer06_min   =  -6.5499874828161E+09
(PID.TID 0000.0001) %MON ad_trcstat_adptracer06_mean  =   6.5979768503139E+06
(PID.TID 0000.0001) %MON ad_trcstat_adptracer06_sd    =   3.1107538379468E+08
(PID.TID 0000.0001) %MON ad_trcstat_adptracer06_del2  =   1.3701957252048E+06
(PID.TID 0000.0001) %MON ad_trcstat_adptracer07_max   =   0.0000000000000E+00
(PID.TID 0000.0001) %MON ad_trcstat_adptracer07_min   =   0.0000000000000E+00
(PID.TID 0000.0001) %MON ad_trcstat_adptracer07_mean  =   0.0000000000000E+00
(PID.TID 0000.0001) %MON ad_trcstat_adptracer07_sd    =   0.0000000000000E+00
(PID.TID 0000.0001) %MON ad_trcstat_adptracer07_del2  =   0.0000000000000E+00
(PID.TID 0000.0001) %MON ad_trcstat_adptracer08_max   =   0.0000000000000E+00
(PID.TID 0000.0001) %MON ad_trcstat_adptracer08_min   =   0.0000000000000E+00
(PID.TID 0000.0001) %MON ad_trcstat_adptracer08_mean  =   0.0000000000000E+00
(PID.TID 0000.0001) %MON ad_trcstat_adptracer08_sd    =   0.0000000000000E+00
(PID.TID 0000.0001) %MON ad_trcstat_adptracer08_del2  =   0.0000000000000E+00
(PID.TID 0000.0001) %MON ad_trcstat_adptracer09_max   =   0.0000000000000E+00
(PID.TID 0000.0001) %MON ad_trcstat_adptracer09_min   =   0.0000000000000E+00
(PID.TID 0000.0001) %MON ad_trcstat_adptracer09_mean  =   0.0000000000000E+00
(PID.TID 0000.0001) %MON ad_trcstat_adptracer09_sd    =   0.0000000000000E+00
(PID.TID 0000.0001) %MON ad_trcstat_adptracer09_del2  =   0.0000000000000E+00
(PID.TID 0000.0001) // =======================================================
(PID.TID 0000.0001) // End AD_MONITOR ptracer field statistics
(PID.TID 0000.0001) // =======================================================
 cg2d: Sum(rhs),rhsMax =   6.82964795828411E-12  4.20358300894422E-02
 cg2d: Sum(rhs),rhsMax =  -7.31695358524576E-07  9.50581629998526E+00
 cg2d: Sum(rhs),rhsMax =  -7.31687521238200E-07  9.50591695204419E+00
 cg2d: Sum(rhs),rhsMax =  -7.31677481269344E-07  9.50604550743943E+00
 cg2d: Sum(rhs),rhsMax =  -7.31666375486384E-07  9.50618716919212E+00
 cg2d: Sum(rhs),rhsMax =  -7.31655610763937E-07  9.50632736750795E+00
 cg2d: Sum(rhs),rhsMax =  -7.31646203178116E-07  9.50645211386654E+00
 cg2d: Sum(rhs),rhsMax =  -7.31638586159988E-07  9.50654833204142E+00
 cg2d: Sum(rhs),rhsMax =  -2.26420297622099E-07  9.50660412264675E+00
 cg2d: Sum(rhs),rhsMax =   6.64246435633231E-12  4.28836087667509E-02
 cg2d: Sum(rhs),rhsMax =  -7.31695358524576E-07  9.50581629998526E+00
 cg2d: Sum(rhs),rhsMax =  -7.31687521238200E-07  9.50591695204419E+00
 cg2d: Sum(rhs),rhsMax =  -7.31677481269344E-07  9.50604550743943E+00
 cg2d: Sum(rhs),rhsMax =  -7.31666375486384E-07  9.50618716919212E+00
 cg2d: Sum(rhs),rhsMax =  -7.31655610763937E-07  9.50632736750795E+00
 cg2d: Sum(rhs),rhsMax =  -7.31646203178116E-07  9.50645211386654E+00
 cg2d: Sum(rhs),rhsMax =  -5.48121086296760E-07  9.50654846119791E+00
 cg2d: Sum(rhs),rhsMax =   5.97144556024887E-12  4.78234744658990E-02
 cg2d: Sum(rhs),rhsMax =  -7.31695358524576E-07  9.50581629998526E+00
 cg2d: Sum(rhs),rhsMax =  -7.31687521238200E-07  9.50591695204419E+00
 cg2d: Sum(rhs),rhsMax =  -7.31677481269344E-07  9.50604550743943E+00
 cg2d: Sum(rhs),rhsMax =  -7.31666375486384E-07  9.50618716919212E+00
 cg2d: Sum(rhs),rhsMax =  -7.31655610763937E-07  9.50632736750795E+00
 cg2d: Sum(rhs),rhsMax =   1.23595550149957E-06  9.50645212722046E+00
 cg2d: Sum(rhs),rhsMax =   5.52868861802835E-12  5.13002525741146E-02
 cg2d: Sum(rhs),rhsMax =  -7.31695358524576E-07  9.50581629998526E+00
 cg2d: Sum(rhs),rhsMax =  -7.31687521238200E-07  9.50591695204419E+00
 cg2d: Sum(rhs),rhsMax =  -7.31677481269344E-07  9.50604550743943E+00
 cg2d: Sum(rhs),rhsMax =  -7.31666375486384E-07  9.50618716919212E+00
 cg2d: Sum(rhs),rhsMax =  -7.21668932612829E-07  9.50632718953983E+00
 cg2d: Sum(rhs),rhsMax =   5.44453371276177E-12  5.19434529394944E-02
 cg2d: Sum(rhs),rhsMax =  -7.31695358524576E-07  9.50581629998526E+00
 cg2d: Sum(rhs),rhsMax =  -7.31687521238200E-07  9.50591695204419E+00
 cg2d: Sum(rhs),rhsMax =  -7.31677481269344E-07  9.50604550743943E+00
 cg2d: Sum(rhs),rhsMax =  -1.80402295768545E-07  9.50618679132305E+00
 cg2d: Sum(rhs),rhsMax =   5.52002887843628E-12  5.09715539050971E-02
 cg2d: Sum(rhs),rhsMax =  -7.31695358524576E-07  9.50581629998526E+00
 cg2d: Sum(rhs),rhsMax =  -7.31687521238200E-07  9.50591695204419E+00
 cg2d: Sum(rhs),rhsMax =  -1.28182731629067E-06  9.50604518300596E+00
 cg2d: Sum(rhs),rhsMax =   5.62394575354119E-12  4.95128468285132E-02
 cg2d: Sum(rhs),rhsMax =  -7.31695358524576E-07  9.50581629998526E+00
 cg2d: Sum(rhs),rhsMax =   9.53232017764094E-08  9.50591696136342E+00
 cg2d: Sum(rhs),rhsMax =   5.76427794385381E-12  4.79052561021598E-02
 cg2d: Sum(rhs),rhsMax =  -7.31695273259447E-07  9.50581629992599E+00
 cg2d: Sum(rhs),rhsMax =   5.89173154708078E-12  4.62764808637767E-02
 cg2d: Sum(rhs),rhsMax =  -7.46576347410155E-08  9.50907671569018E+00
 cg2d: Sum(rhs),rhsMax =  -7.46636956705515E-08  9.50827538007810E+00
 cg2d: Sum(rhs),rhsMax =  -7.46696002806857E-08  9.50759038673436E+00
 cg2d: Sum(rhs),rhsMax =  -7.46738635371003E-08  9.50702164848735E+00
 cg2d: Sum(rhs),rhsMax =  -7.46774944104800E-08  9.50656668487862E+00
 cg2d: Sum(rhs),rhsMax =  -7.46800878914655E-08  9.50622069715104E+00
 cg2d: Sum(rhs),rhsMax =  -7.46821626762539E-08  9.50597670066013E+00
 cg2d: Sum(rhs),rhsMax =  -7.46832924392038E-08  9.50582571630982E+00
 cg2d: Sum(rhs),rhsMax =  -7.46840456145037E-08  9.50575700943737E+00
 cg2d: Sum(rhs),rhsMax =  -7.46835624454434E-08  9.50575837107225E+00
 cg2d: Sum(rhs),rhsMax =  -7.46576347410155E-08  9.50907671569018E+00
 cg2d: Sum(rhs),rhsMax =  -7.46636956705515E-08  9.50827538007810E+00
 cg2d: Sum(rhs),rhsMax =  -7.46696002806857E-08  9.50759038673436E+00
 cg2d: Sum(rhs),rhsMax =  -7.46738635371003E-08  9.50702164848735E+00
 cg2d: Sum(rhs),rhsMax =  -7.46774944104800E-08  9.50656668487862E+00
 cg2d: Sum(rhs),rhsMax =  -7.46800878914655E-08  9.50622069715104E+00
 cg2d: Sum(rhs),rhsMax =  -7.46821626762539E-08  9.50597670066013E+00
 cg2d: Sum(rhs),rhsMax =  -7.46832924392038E-08  9.50582571630982E+00
 cg2d: Sum(rhs),rhsMax =  -7.46840456145037E-08  9.50575700943737E+00
 cg2d: Sum(rhs),rhsMax =   1.66490415409726E-06  9.50575848501998E+00
 cg2d: Sum(rhs),rhsMax =   5.86530823909470E-12  4.63761821604574E-02
 cg2d: Sum(rhs),rhsMax =  -7.46576347410155E-08  9.50907671569018E+00
 cg2d: Sum(rhs),rhsMax =  -7.46636956705515E-08  9.50827538007810E+00
 cg2d: Sum(rhs),rhsMax =  -7.46696002806857E-08  9.50759038673436E+00
 cg2d: Sum(rhs),rhsMax =  -7.46738635371003E-08  9.50702164848735E+00
 cg2d: Sum(rhs),rhsMax =  -7.46774944104800E-08  9.50656668487862E+00
 cg2d: Sum(rhs),rhsMax =  -7.46800878914655E-08  9.50622069715104E+00
 cg2d: Sum(rhs),rhsMax =  -7.46821626762539E-08  9.50597670066013E+00
 cg2d: Sum(rhs),rhsMax =  -7.46832924392038E-08  9.50582571630982E+00
 cg2d: Sum(rhs),rhsMax =  -8.86264224675415E-07  9.50575680184972E+00
 cg2d: Sum(rhs),rhsMax =   5.74096326033668E-12  4.72375437827894E-02
 cg2d: Sum(rhs),rhsMax =  -7.46576347410155E-08  9.50907671569018E+00
 cg2d: Sum(rhs),rhsMax =  -7.46636956705515E-08  9.50827538007810E+00
 cg2d: Sum(rhs),rhsMax =  -7.46696002806857E-08  9.50759038673436E+00
 cg2d: Sum(rhs),rhsMax =  -7.46738635371003E-08  9.50702164848735E+00
 cg2d: Sum(rhs),rhsMax =  -7.46774944104800E-08  9.50656668487862E+00
 cg2d: Sum(rhs),rhsMax =  -7.46800878914655E-08  9.50622069715104E+00
 cg2d: Sum(rhs),rhsMax =  -7.46821626762539E-08  9.50597670066013E+00
 cg2d: Sum(rhs),rhsMax =  -7.51998307180202E-07  9.50582562711593E+00
 cg2d: Sum(rhs),rhsMax =   5.79269965328422E-12  4.62665426109976E-02
 cg2d: Sum(rhs),rhsMax =  -7.46576347410155E-08  9.50907671569018E+00
 cg2d: Sum(rhs),rhsMax =  -7.46636956705515E-08  9.50827538007810E+00
 cg2d: Sum(rhs),rhsMax =  -7.46696002806857E-08  9.50759038673436E+00
 cg2d: Sum(rhs),rhsMax =  -7.46738635371003E-08  9.50702164848735E+00
 cg2d: Sum(rhs),rhsMax =  -7.46774944104800E-08  9.50656668487862E+00
 cg2d: Sum(rhs),rhsMax =  -7.46800878914655E-08  9.50622069715104E+00
 cg2d: Sum(rhs),rhsMax =   6.83384691058109E-07  9.50597656968220E+00
 cg2d: Sum(rhs),rhsMax =   5.99120753008719E-12  4.48973751391178E-02
 cg2d: Sum(rhs),rhsMax =  -7.46576347410155E-08  9.50907671569018E+00
 cg2d: Sum(rhs),rhsMax =  -7.46636956705515E-08  9.50827538007810E+00
 cg2d: Sum(rhs),rhsMax =  -7.46696002806857E-08  9.50759038673436E+00
 cg2d: Sum(rhs),rhsMax =  -7.46738635371003E-08  9.50702164848735E+00
 cg2d: Sum(rhs),rhsMax =  -7.46774944104800E-08  9.50656668487862E+00
 cg2d: Sum(rhs),rhsMax =   1.20506697953715E-07  9.50622069285991E+00
 cg2d: Sum(rhs),rhsMax =   5.85553827647800E-12  4.54379472909960E-02
 cg2d: Sum(rhs),rhsMax =  -7.46576347410155E-08  9.50907671569018E+00
 cg2d: Sum(rhs),rhsMax =  -7.46636956705515E-08  9.50827538007810E+00
 cg2d: Sum(rhs),rhsMax =  -7.46696002806857E-08  9.50759038673436E+00
 cg2d: Sum(rhs),rhsMax =  -7.46738635371003E-08  9.50702164848735E+00
 cg2d: Sum(rhs),rhsMax =  -1.17747746486430E-06  9.50656698154530E+00
 cg2d: Sum(rhs),rhsMax =   5.96767080196514E-12  4.46933489445289E-02
 cg2d: Sum(rhs),rhsMax =  -7.46576347410155E-08  9.50907671569018E+00
 cg2d: Sum(rhs),rhsMax =  -7.46636956705515E-08  9.50827538007810E+00
 cg2d: Sum(rhs),rhsMax =  -7.46696002806857E-08  9.50759038673436E+00
 cg2d: Sum(rhs),rhsMax =  -5.62172346008083E-07  9.50702148449731E+00
 cg2d: Sum(rhs),rhsMax =   5.84243764478742E-12  4.46251153417229E-02
 cg2d: Sum(rhs),rhsMax =  -7.46576347410155E-08  9.50907671569018E+00
 cg2d: Sum(rhs),rhsMax =  -7.46636956705515E-08  9.50827538007810E+00
 cg2d: Sum(rhs),rhsMax =  -1.84534606262332E-07  9.50759034307268E+00
 cg2d: Sum(rhs),rhsMax =   5.69055913501870E-12  4.57116883315523E-02
 cg2d: Sum(rhs),rhsMax =  -7.46576347410155E-08  9.50907671569018E+00
 cg2d: Sum(rhs),rhsMax =  -1.16875732203425E-07  9.50827515265913E+00
 cg2d: Sum(rhs),rhsMax =   5.17208498251875E-12  5.01912694755921E-02
 cg2d: Sum(rhs),rhsMax =  -7.46578336929815E-08  9.50907671615064E+00
 cg2d: Sum(rhs),rhsMax =   4.65849581132716E-12  5.52988826020600E-02
 DIC_SURFFORCING_INIT, it=   3600000 : Reading new data, i0,i1=   12    1
 QQ: pCO2 approximation method
 QQ first guess pH 8.2869849781645275,  7.129213793781922,  34.1535348423009,  2.0282,  5.43799999999999991E-4,  8.08490416966378689E-3,  2.3086000000000002
(PID.TID 0000.0001) // =======================================================
(PID.TID 0000.0001) // Model current state
(PID.TID 0000.0001) // =======================================================
(PID.TID 0000.0001) 
(PID.TID 0000.0001) whio : write lev 2 rec   1
 EXTERNAL_FIELDS_LOAD, it=   3600000 : Reading new data, i0,i1=   12    1 (prev=   12    0 )
 DIC_FIELDS_LOAD, it=   3600000 : Reading new data, i0,i1=   12    1 (prev=   12    0 )
 cg2d: Sum(rhs),rhsMax =   1.69318610687696E-07  8.73439699737069E+00
 cg2d: Sum(rhs),rhsMax =   1.69217777568065E-07  8.73957985685053E+00
 cg2d: Sum(rhs),rhsMax =   1.69116930237578E-07  8.74478996407667E+00
 cg2d: Sum(rhs),rhsMax =   1.69015713424869E-07  8.75002525197054E+00
 cg2d: Sum(rhs),rhsMax =   1.68913977915963E-07  8.75528319149979E+00
 cg2d: Sum(rhs),rhsMax =   1.68812391621032E-07  8.76056091159563E+00
 cg2d: Sum(rhs),rhsMax =   1.68710130310501E-07  8.76585531016545E+00
 cg2d: Sum(rhs),rhsMax =   1.68607783734842E-07  8.77116317961867E+00
 cg2d: Sum(rhs),rhsMax =   1.68505465580893E-07  8.77648131488675E+00
 cg2d: Sum(rhs),rhsMax =   1.68403296640918E-07  8.78180660701903E+00
(PID.TID 0000.0001) whio : write lev 2 rec   2
 cg2d: Sum(rhs),rhsMax =   1.68301063752097E-07  8.78713610702002E+00
 cg2d: Sum(rhs),rhsMax =   1.68199015604387E-07  8.79246706727320E+00
 cg2d: Sum(rhs),rhsMax =   1.68096867980694E-07  8.79779694946195E+00
 cg2d: Sum(rhs),rhsMax =   1.67995075628369E-07  8.80312339652564E+00
 cg2d: Sum(rhs),rhsMax =   1.67893297486899E-07  8.80844419596376E+00
 cg2d: Sum(rhs),rhsMax =   1.67792002514489E-07  8.81375727000352E+00
 cg2d: Sum(rhs),rhsMax =   1.67690991759173E-07  8.81906074076855E+00
 cg2d: Sum(rhs),rhsMax =   1.67590364696935E-07  8.82435302858595E+00
 cg2d: Sum(rhs),rhsMax =   1.67489801583542E-07  8.82963296688162E+00
 cg2d: Sum(rhs),rhsMax =   1.67389771377202E-07  8.83489991268453E+00
(PID.TID 0000.0001) whio : write lev 2 rec   3
 cg2d: Sum(rhs),rhsMax =   1.67290018282529E-07  8.84015381998810E+00
 cg2d: Sum(rhs),rhsMax =   1.67191025468583E-07  8.84539524558423E+00
 cg2d: Sum(rhs),rhsMax =   1.67091911862371E-07  8.85062527386172E+00
 cg2d: Sum(rhs),rhsMax =   1.66993110894964E-07  8.85584539161906E+00
 cg2d: Sum(rhs),rhsMax =   1.66895297581959E-07  8.86105731971219E+00
 cg2d: Sum(rhs),rhsMax =   1.66797214262715E-07  8.86626284368505E+00
 cg2d: Sum(rhs),rhsMax =   1.66699088310907E-07  8.87146368108963E+00
 cg2d: Sum(rhs),rhsMax =   1.66601175521919E-07  8.87666140941337E+00
 cg2d: Sum(rhs),rhsMax =   1.66503703269427E-07  8.88185744320308E+00
 cg2d: Sum(rhs),rhsMax =   1.66406401547192E-07  8.88705304968201E+00
(PID.TID 0000.0001) whio : write lev 2 rec   4
 EXTERNAL_FIELDS_LOAD, it=   3600030 : Reading new data, i0,i1=    1    2 (prev=   12    1 )
 DIC_FIELDS_LOAD, it=   3600030 : Reading new data, i0,i1=    1    2 (prev=   12    1 )
 cg2d: Sum(rhs),rhsMax =   1.66308751659017E-07  8.89224939629417E+00
 cg2d: Sum(rhs),rhsMax =   1.66211989949261E-07  8.89742905273518E+00
 cg2d: Sum(rhs),rhsMax =   1.66115810884548E-07  8.90258194312370E+00
 cg2d: Sum(rhs),rhsMax =   1.66020008407486E-07  8.90769862985287E+00
 cg2d: Sum(rhs),rhsMax =   1.65925222006535E-07  8.91277064894441E+00
 cg2d: Sum(rhs),rhsMax =   1.65832325649262E-07  8.91779073567431E+00
 cg2d: Sum(rhs),rhsMax =   1.65739969304468E-07  8.92275296238945E+00
 cg2d: Sum(rhs),rhsMax =   1.65648664562923E-07  8.92765282308104E+00
 cg2d: Sum(rhs),rhsMax =   1.65559029596807E-07  8.93248727153984E+00
 cg2d: Sum(rhs),rhsMax =   1.65470908086718E-07  8.93725470683360E+00
(PID.TID 0000.0001) whio : write lev 2 rec   5
 cg2d: Sum(rhs),rhsMax =   1.65383411854236E-07  8.94195490169141E+00
 cg2d: Sum(rhs),rhsMax =   1.65297855403423E-07  8.94658889014494E+00
 cg2d: Sum(rhs),rhsMax =   1.65213478453552E-07  8.95115882656284E+00
 cg2d: Sum(rhs),rhsMax =   1.65130131790647E-07  8.95566783046152E+00
 cg2d: Sum(rhs),rhsMax =   1.65047609357316E-07  8.96011984139981E+00
 cg2d: Sum(rhs),rhsMax =   1.64966841964542E-07  8.96451949805779E+00
 cg2d: Sum(rhs),rhsMax =   1.64886614584248E-07  8.96887204401274E+00
 cg2d: Sum(rhs),rhsMax =   1.64807353542074E-07  8.97318325974703E+00
 cg2d: Sum(rhs),rhsMax =   1.64728760410071E-07  8.97745941334167E+00
 cg2d: Sum(rhs),rhsMax =   1.64650550971146E-07  8.98170721084718E+00
(PID.TID 0000.0001) whio : write lev 2 rec   6
 cg2d: Sum(rhs),rhsMax =   1.64573251026923E-07  8.98593374417503E+00
 cg2d: Sum(rhs),rhsMax =   1.64495830290434E-07  8.99014648706113E+00
 cg2d: Sum(rhs),rhsMax =   1.64419148518391E-07  8.99435313191228E+00
 cg2d: Sum(rhs),rhsMax =   1.64342466746348E-07  8.99856143301709E+00
 cg2d: Sum(rhs),rhsMax =   1.64265266278107E-07  9.00277891979376E+00
 cg2d: Sum(rhs),rhsMax =   1.64188094231577E-07  9.00701226475977E+00
 cg2d: Sum(rhs),rhsMax =   1.64110602440815E-07  9.01126800872608E+00
 cg2d: Sum(rhs),rhsMax =   1.64032670113556E-07  9.01555262481054E+00
 cg2d: Sum(rhs),rhsMax =   1.63954233300956E-07  9.01987189615712E+00
 cg2d: Sum(rhs),rhsMax =   1.63875164105320E-07  9.02423093235336E+00
(PID.TID 0000.0001) whio : write lev 2 rec   7
 cg2d: Sum(rhs),rhsMax =   1.63795320418103E-07  9.02863410711437E+00
 cg2d: Sum(rhs),rhsMax =   1.63714346967936E-07  9.03308492807320E+00
 cg2d: Sum(rhs),rhsMax =   1.63633295358068E-07  9.03758589550099E+00
 cg2d: Sum(rhs),rhsMax =   1.63551085563540E-07  9.04213843256992E+00
 cg2d: Sum(rhs),rhsMax =   1.63468094172003E-07  9.04674278808053E+00
 cg2d: Sum(rhs),rhsMax =   1.63383937490380E-07  9.05139800068177E+00
 cg2d: Sum(rhs),rhsMax =   1.63299503697090E-07  9.05610191103194E+00
 cg2d: Sum(rhs),rhsMax =   1.63213783821448E-07  9.06085121060704E+00
 cg2d: Sum(rhs),rhsMax =   1.63127957364395E-07  9.06564152308058E+00
 cg2d: Sum(rhs),rhsMax =   1.63041192990931E-07  9.07046751690403E+00
(PID.TID 0000.0001) whio : write lev 2 rec   8
 cg2d: Sum(rhs),rhsMax =   1.62954130189519E-07  9.07532304700718E+00
 cg2d: Sum(rhs),rhsMax =   1.62866854225285E-07  9.08020131376247E+00
 cg2d: Sum(rhs),rhsMax =   1.62779372203659E-07  9.08509502964907E+00
 cg2d: Sum(rhs),rhsMax =   1.62691954130878E-07  9.08999659239780E+00
 cg2d: Sum(rhs),rhsMax =   1.62604585796089E-07  9.09489817218861E+00
 cg2d: Sum(rhs),rhsMax =   1.62517501678394E-07  9.09979218349167E+00
 cg2d: Sum(rhs),rhsMax =   1.62430644934375E-07  9.10467101498796E+00
 cg2d: Sum(rhs),rhsMax =   1.62344292675698E-07  9.10952746457549E+00
 cg2d: Sum(rhs),rhsMax =   1.62258693592321E-07  9.11435477997425E+00
 cg2d: Sum(rhs),rhsMax =   1.62174011109073E-07  9.11914675387257E+00
(PID.TID 0000.0001) whio : write lev 2 rec   9
 cg2d: Sum(rhs),rhsMax =   1.62089747846039E-07  9.12389782853965E+00
 cg2d: Sum(rhs),rhsMax =   1.62006273285442E-07  9.12860319621454E+00
 cg2d: Sum(rhs),rhsMax =   1.61924113228906E-07  9.13325897230795E+00
 cg2d: Sum(rhs),rhsMax =   1.61842727663952E-07  9.13786227569362E+00
 cg2d: Sum(rhs),rhsMax =   1.61762493178230E-07  9.14241138202085E+00
 cg2d: Sum(rhs),rhsMax =   1.61683040289518E-07  9.14690582567222E+00
 cg2d: Sum(rhs),rhsMax =   1.61604830850592E-07  9.15134644986131E+00
 cg2d: Sum(rhs),rhsMax =   1.61527417219531E-07  9.15573538211935E+00
 cg2d: Sum(rhs),rhsMax =   1.61451261249113E-07  9.16007592950651E+00
 cg2d: Sum(rhs),rhsMax =   1.61375858453994E-07  9.16437240256295E+00
(PID.TID 0000.0001) whio : write lev 2 rec  10
 EXTERNAL_FIELDS_LOAD, it=   3600090 : Reading new data, i0,i1=    2    3 (prev=    1    2 )
 DIC_FIELDS_LOAD, it=   3600090 : Reading new data, i0,i1=    2    3 (prev=    1    2 )
 cg2d: Sum(rhs),rhsMax =   1.61301031198491E-07  9.16862988474514E+00
 cg2d: Sum(rhs),rhsMax =   1.61226488160082E-07  9.17287253571495E+00
 cg2d: Sum(rhs),rhsMax =   1.61152193811631E-07  9.17711746016568E+00
 cg2d: Sum(rhs),rhsMax =   1.61077544191812E-07  9.18138108877058E+00
 cg2d: Sum(rhs),rhsMax =   1.61002326137805E-07  9.18567861304476E+00
 cg2d: Sum(rhs),rhsMax =   1.60926205694523E-07  9.19002353014883E+00
 cg2d: Sum(rhs),rhsMax =   1.60849204178248E-07  9.19442728641192E+00
 cg2d: Sum(rhs),rhsMax =   1.60771165269580E-07  9.19889902438565E+00
 cg2d: Sum(rhs),rhsMax =   1.60691676853730E-07  9.20344543538162E+00
 cg2d: Sum(rhs),rhsMax =   1.60610625243862E-07  9.20807071616803E+00
(PID.TID 0000.0001) whio : write lev 2 rec  11
 cg2d: Sum(rhs),rhsMax =   1.60529111781216E-07  9.21277660183589E+00
 cg2d: Sum(rhs),rhsMax =   1.60445615904337E-07  9.21756247694247E+00
 cg2d: Sum(rhs),rhsMax =   1.60361018686217E-07  9.22242554775714E+00
 cg2d: Sum(rhs),rhsMax =   1.60275249072583E-07  9.22736105179622E+00
 cg2d: Sum(rhs),rhsMax =   1.60188832865060E-07  9.23236249675336E+00
 cg2d: Sum(rhs),rhsMax =   1.60101009782920E-07  9.23742190581730E+00
 cg2d: Sum(rhs),rhsMax =   1.60012376682062E-07  9.24253005999046E+00
 cg2d: Sum(rhs),rhsMax =   1.59923374098980E-07  9.24767675774736E+00
 cg2d: Sum(rhs),rhsMax =   1.59833348334359E-07  9.25285099530738E+00
 cg2d: Sum(rhs),rhsMax =   1.59743947847346E-07  9.25804118480452E+00
(PID.TID 0000.0001) whio : write lev 2 rec  12
 cg2d: Sum(rhs),rhsMax =   1.59654156561828E-07  9.26323537521839E+00
 cg2d: Sum(rhs),rhsMax =   1.59564649493404E-07  9.26842146305946E+00
 cg2d: Sum(rhs),rhsMax =   1.59475810335152E-07  9.27358734254206E+00
 cg2d: Sum(rhs),rhsMax =   1.59387511189379E-07  9.27872091717081E+00
 cg2d: Sum(rhs),rhsMax =   1.59299617052966E-07  9.28381136814303E+00
 cg2d: Sum(rhs),rhsMax =   1.59212980577195E-07  9.28884862895416E+00
 cg2d: Sum(rhs),rhsMax =   1.59127175436424E-07  9.29382345652557E+00
 cg2d: Sum(rhs),rhsMax =   1.59043672454118E-07  9.29872780684878E+00
 cg2d: Sum(rhs),rhsMax =   1.58960915541684E-07  9.30355510475018E+00
 cg2d: Sum(rhs),rhsMax =   1.58879650768995E-07  9.30830036704988E+00
(PID.TID 0000.0001) whio : write lev 2 rec  13
 cg2d: Sum(rhs),rhsMax =   1.58800041560880E-07  9.31296021040285E+00
 cg2d: Sum(rhs),rhsMax =   1.58721938703366E-07  9.31753280098406E+00
 cg2d: Sum(rhs),rhsMax =   1.58645484304998E-07  9.32201775765958E+00
 cg2d: Sum(rhs),rhsMax =   1.58570394148683E-07  9.32641602969786E+00
 cg2d: Sum(rhs),rhsMax =   1.58496945346087E-07  9.33072978578710E+00
 cg2d: Sum(rhs),rhsMax =   1.58424988683237E-07  9.33496230239218E+00
 cg2d: Sum(rhs),rhsMax =   1.58354438895003E-07  9.33911784987238E+00
 cg2d: Sum(rhs),rhsMax =   1.58284855444890E-07  9.34320156451738E+00
 cg2d: Sum(rhs),rhsMax =   1.58217005719052E-07  9.34721929418330E+00
 cg2d: Sum(rhs),rhsMax =   1.58150037066207E-07  9.35117742178592E+00
(PID.TID 0000.0001) whio : write lev 2 rec  14
 cg2d: Sum(rhs),rhsMax =   1.58083715007251E-07  9.35508267492027E+00
 cg2d: Sum(rhs),rhsMax =   1.58018764295775E-07  9.35894192419005E+00
 cg2d: Sum(rhs),rhsMax =   1.57953891744000E-07  9.36276197821802E+00
 cg2d: Sum(rhs),rhsMax =   1.57889999741201E-07  9.36654938518496E+00
 cg2d: Sum(rhs),rhsMax =   1.57826519853188E-07  9.37031025051024E+00
 cg2d: Sum(rhs),rhsMax =   1.57763658137355E-07  9.37405007348543E+00
 cg2d: Sum(rhs),rhsMax =   1.57700689840112E-07  9.37777361441556E+00
 cg2d: Sum(rhs),rhsMax =   1.57638105235947E-07  9.38148479575939E+00
 cg2d: Sum(rhs),rhsMax =   1.57575861692294E-07  9.38518664193280E+00
 cg2d: Sum(rhs),rhsMax =   1.57513689202915E-07  9.38888125563880E+00
(PID.TID 0000.0001) whio : write lev 2 rec  15
 cg2d: Sum(rhs),rhsMax =   1.57451452764690E-07  9.39256983098558E+00
 cg2d: Sum(rhs),rhsMax =   1.57389870025781E-07  9.39625269423587E+00
 cg2d: Sum(rhs),rhsMax =   1.57327839644950E-07  9.39992937198207E+00
 cg2d: Sum(rhs),rhsMax =   1.57266605071982E-07  9.40359867449008E+00
 cg2d: Sum(rhs),rhsMax =   1.57205221285039E-07  9.40725878524180E+00
 cg2d: Sum(rhs),rhsMax =   1.57144384616004E-07  9.41090734419932E+00
 cg2d: Sum(rhs),rhsMax =   1.57083441365558E-07  9.41454153230469E+00
 cg2d: Sum(rhs),rhsMax =   1.57022817859342E-07  9.41815815729745E+00
 cg2d: Sum(rhs),rhsMax =   1.56962848052444E-07  9.42175373864234E+00
 cg2d: Sum(rhs),rhsMax =   1.56903354309179E-07  9.42532458834380E+00
(PID.TID 0000.0001) whio : write lev 2 rec  16
 EXTERNAL_FIELDS_LOAD, it=   3600150 : Reading new data, i0,i1=    3    4 (prev=    2    3 )
 DIC_FIELDS_LOAD, it=   3600150 : Reading new data, i0,i1=    3    4 (prev=    2    3 )
 cg2d: Sum(rhs),rhsMax =   1.56844386367538E-07  9.42886688985512E+00
 cg2d: Sum(rhs),rhsMax =   1.56786050808932E-07  9.43235379724390E+00
 cg2d: Sum(rhs),rhsMax =   1.56729463185457E-07  9.43576817325861E+00
 cg2d: Sum(rhs),rhsMax =   1.56674040852067E-07  9.43909408079935E+00
 cg2d: Sum(rhs),rhsMax =   1.56620934887997E-07  9.44231724780375E+00
 cg2d: Sum(rhs),rhsMax =   1.56569370801662E-07  9.44542544012602E+00
 cg2d: Sum(rhs),rhsMax =   1.56519689653578E-07  9.44840873884622E+00
 cg2d: Sum(rhs),rhsMax =   1.56472822254727E-07  9.45125971609770E+00
 cg2d: Sum(rhs),rhsMax =   1.56427617525878E-07  9.45397350936240E+00
 cg2d: Sum(rhs),rhsMax =   1.56384757588057E-07  9.45654781865251E+00
(PID.TID 0000.0001) whio : write lev 2 rec  17
 cg2d: Sum(rhs),rhsMax =   1.56344832191735E-07  9.45898283383023E+00
 cg2d: Sum(rhs),rhsMax =   1.56306633414260E-07  9.46128109723642E+00
 cg2d: Sum(rhs),rhsMax =   1.56271084961190E-07  9.46344731860571E+00
 cg2d: Sum(rhs),rhsMax =   1.56237142334703E-07  9.46548815348608E+00
 cg2d: Sum(rhs),rhsMax =   1.56205267387577E-07  9.46741194668024E+00
 cg2d: Sum(rhs),rhsMax =   1.56175239851564E-07  9.46922844872215E+00
 cg2d: Sum(rhs),rhsMax =   1.56147137886364E-07  9.47094849760508E+00
 cg2d: Sum(rhs),rhsMax =   1.56120208316679E-07  9.47258374009707E+00
 cg2d: Sum(rhs),rhsMax =   1.56094635883619E-07  9.47414632630027E+00
 cg2d: Sum(rhs),rhsMax =   1.56069631884748E-07  9.47564860958206E+00
(PID.TID 0000.0001) whio : write lev 2 rec  18
 cg2d: Sum(rhs),rhsMax =   1.56045885546519E-07  9.47710285869683E+00
 cg2d: Sum(rhs),rhsMax =   1.56022359476538E-07  9.47852099456481E+00
 cg2d: Sum(rhs),rhsMax =   1.55999494211301E-07  9.47991435650409E+00
 cg2d: Sum(rhs),rhsMax =   1.55977154747688E-07  9.48129350219173E+00
 cg2d: Sum(rhs),rhsMax =   1.55954339220443E-07  9.48266804354933E+00
 cg2d: Sum(rhs),rhsMax =   1.55931793699438E-07  9.48404652431056E+00
 cg2d: Sum(rhs),rhsMax =   1.55909042121039E-07  9.48543632689988E+00
 cg2d: Sum(rhs),rhsMax =   1.55885821584434E-07  9.48684360539340E+00
 cg2d: Sum(rhs),rhsMax =   1.55862714734667E-07  9.48827325855926E+00
 cg2d: Sum(rhs),rhsMax =   1.55838826287891E-07  9.48972893204264E+00
(PID.TID 0000.0001) whio : write lev 2 rec  19
 cg2d: Sum(rhs),rhsMax =   1.55814433355772E-07  9.49121303094114E+00
 cg2d: Sum(rhs),rhsMax =   1.55789983580235E-07  9.49272675313569E+00
 cg2d: Sum(rhs),rhsMax =   1.55764709575124E-07  9.49427013125867E+00
 cg2d: Sum(rhs),rhsMax =   1.55739108720354E-07  9.49584209100241E+00
 cg2d: Sum(rhs),rhsMax =   1.55712911009687E-07  9.49744052944898E+00
 cg2d: Sum(rhs),rhsMax =   1.55686521452481E-07  9.49906241013908E+00
 cg2d: Sum(rhs),rhsMax =   1.55659733991342E-07  9.50070387273709E+00
 cg2d: Sum(rhs),rhsMax =   1.55632626785973E-07  9.50236035485632E+00
 cg2d: Sum(rhs),rhsMax =   1.55605491158894E-07  9.50402672184669E+00
 cg2d: Sum(rhs),rhsMax =   1.55578298688397E-07  9.50569741335586E+00
(PID.TID 0000.0001) whio : write lev 2 rec  20
 cg2d: Sum(rhs),rhsMax =   1.55551077796190E-07  9.50736658442417E+00
 cg2d: Sum(rhs),rhsMax =   1.55523885325692E-07  9.50902827319058E+00
 cg2d: Sum(rhs),rhsMax =   1.55497183129683E-07  9.51067651838719E+00
 cg2d: Sum(rhs),rhsMax =   1.55470786467049E-07  9.51230545785063E+00
 cg2d: Sum(rhs),rhsMax =   1.55444702443219E-07  9.51390942883206E+00
 cg2d: Sum(rhs),rhsMax =   1.55418959479903E-07  9.51548308991335E+00
 cg2d: Sum(rhs),rhsMax =   1.55394317857827E-07  9.51702152785329E+00
 cg2d: Sum(rhs),rhsMax =   1.55369711762887E-07  9.51852032989996E+00
 cg2d: Sum(rhs),rhsMax =   1.55346036478932E-07  9.51997562350372E+00
 cg2d: Sum(rhs),rhsMax =   1.55323576223054E-07  9.52138408524577E+00
(PID.TID 0000.0001) whio : write lev 2 rec  21
 cg2d: Sum(rhs),rhsMax =   1.55301350446280E-07  9.52274293287698E+00
 cg2d: Sum(rhs),rhsMax =   1.55280744706943E-07  9.52404992562530E+00
 cg2d: Sum(rhs),rhsMax =   1.55260174494742E-07  9.52530334700116E+00
 cg2d: Sum(rhs),rhsMax =   1.55241302479681E-07  9.52650198435958E+00
 cg2d: Sum(rhs),rhsMax =   1.55222487308038E-07  9.52764509643312E+00
 cg2d: Sum(rhs),rhsMax =   1.55204908480755E-07  9.52873236598035E+00
 cg2d: Sum(rhs),rhsMax =   1.55188487838132E-07  9.52976385013957E+00
 cg2d: Sum(rhs),rhsMax =   1.55173047744483E-07  9.53073993449898E+00
 cg2d: Sum(rhs),rhsMax =   1.55157991343913E-07  9.53166115429964E+00
 cg2d: Sum(rhs),rhsMax =   1.55143979441164E-07  9.53252820084563E+00
(PID.TID 0000.0001) whio : write lev 2 rec  22
 EXTERNAL_FIELDS_LOAD, it=   3600210 : Reading new data, i0,i1=    4    5 (prev=    3    4 )
 DIC_FIELDS_LOAD, it=   3600210 : Reading new data, i0,i1=    4    5 (prev=    3    4 )
 cg2d: Sum(rhs),rhsMax =   1.55130905454826E-07  9.53334182315816E+00
 cg2d: Sum(rhs),rhsMax =   1.55118726752335E-07  9.53411543180110E+00
 cg2d: Sum(rhs),rhsMax =   1.55106960164630E-07  9.53485647400445E+00
 cg2d: Sum(rhs),rhsMax =   1.55095513321157E-07  9.53557144961540E+00
 cg2d: Sum(rhs),rhsMax =   1.55084286745932E-07  9.53626437508729E+00
 cg2d: Sum(rhs),rhsMax =   1.55073522023486E-07  9.53693893005197E+00
 cg2d: Sum(rhs),rhsMax =   1.55063091256125E-07  9.53759780592152E+00
 cg2d: Sum(rhs),rhsMax =   1.55052710226755E-07  9.53824281869492E+00
 cg2d: Sum(rhs),rhsMax =   1.55042712890463E-07  9.53887512481608E+00
 cg2d: Sum(rhs),rhsMax =   1.55032850557291E-07  9.53949557057448E+00
(PID.TID 0000.0001) whio : write lev 2 rec  23
 cg2d: Sum(rhs),rhsMax =   1.55023101910956E-07  9.54010511361926E+00
 cg2d: Sum(rhs),rhsMax =   1.55013388791758E-07  9.54070462884507E+00
 cg2d: Sum(rhs),rhsMax =   1.55003839097390E-07  9.54129438984927E+00
 cg2d: Sum(rhs),rhsMax =   1.54994630463534E-07  9.54187344979344E+00
 cg2d: Sum(rhs),rhsMax =   1.54985528411089E-07  9.54243967644670E+00
 cg2d: Sum(rhs),rhsMax =   1.54976746102875E-07  9.54298998248434E+00
 cg2d: Sum(rhs),rhsMax =   1.54968013532653E-07  9.54352062450418E+00
 cg2d: Sum(rhs),rhsMax =   1.54960090981149E-07  9.54402746047673E+00
 cg2d: Sum(rhs),rhsMax =   1.54952580544432E-07  9.54450615312909E+00
 cg2d: Sum(rhs),rhsMax =   1.54945666963613E-07  9.54495237452022E+00
(PID.TID 0000.0001) whio : write lev 2 rec  24
 cg2d: Sum(rhs),rhsMax =   1.54939364449547E-07  9.54536198175505E+00
 cg2d: Sum(rhs),rhsMax =   1.54933822216208E-07  9.54573114963606E+00
 cg2d: Sum(rhs),rhsMax =   1.54929239215562E-07  9.54605645054606E+00
 cg2d: Sum(rhs),rhsMax =   1.54924848061455E-07  9.54633494356549E+00
 cg2d: Sum(rhs),rhsMax =   1.54921565354016E-07  9.54656419952745E+00
 cg2d: Sum(rhs),rhsMax =   1.54919064243586E-07  9.54674232632412E+00
 cg2d: Sum(rhs),rhsMax =   1.54917373151875E-07  9.54686796832826E+00
 cg2d: Sum(rhs),rhsMax =   1.54916946826233E-07  9.54694028672918E+00
 cg2d: Sum(rhs),rhsMax =   1.54916875771960E-07  9.54695891768134E+00
 cg2d: Sum(rhs),rhsMax =   1.54917948691491E-07  9.54692390677095E+00
(PID.TID 0000.0001) whio : write lev 2 rec  25
 cg2d: Sum(rhs),rhsMax =   1.54919810313459E-07  9.54683563674691E+00
 cg2d: Sum(rhs),rhsMax =   1.54922318529316E-07  9.54669476235123E+00
 cg2d: Sum(rhs),rhsMax =   1.54925821505003E-07  9.54650214870757E+00
 cg2d: Sum(rhs),rhsMax =   1.54930418716503E-07  9.54625877741125E+00
 cg2d: Sum(rhs),rhsMax =   1.54935570151338E-07  9.54596567399769E+00
 cg2d: Sum(rhs),rhsMax =   1.54941183438950E-07  9.54562385805509E+00
 cg2d: Sum(rhs),rhsMax =   1.54948246233744E-07  9.54523428743093E+00
 cg2d: Sum(rhs),rhsMax =   1.54955742459606E-07  9.54479779933890E+00
 cg2d: Sum(rhs),rhsMax =   1.54963636589400E-07  9.54431503841889E+00
 cg2d: Sum(rhs),rhsMax =   1.54972831012401E-07  9.54378641947086E+00
(PID.TID 0000.0001) whio : write lev 2 rec  26
 cg2d: Sum(rhs),rhsMax =   1.54982579658736E-07  9.54321212532785E+00
 cg2d: Sum(rhs),rhsMax =   1.54992825684985E-07  9.54259212879030E+00
 cg2d: Sum(rhs),rhsMax =   1.55004265423031E-07  9.54192622626502E+00
 cg2d: Sum(rhs),rhsMax =   1.55016344649539E-07  9.54121407389056E+00
 cg2d: Sum(rhs),rhsMax =   1.55028779147415E-07  9.54045522146809E+00
 cg2d: Sum(rhs),rhsMax =   1.55042492622215E-07  9.53964914739889E+00
 cg2d: Sum(rhs),rhsMax =   1.55056454786973E-07  9.53879530565145E+00
 cg2d: Sum(rhs),rhsMax =   1.55071575136390E-07  9.53789320117186E+00
 cg2d: Sum(rhs),rhsMax =   1.55087299447132E-07  9.53694245990867E+00
 cg2d: Sum(rhs),rhsMax =   1.55103904830867E-07  9.53594290333437E+00
(PID.TID 0000.0001) whio : write lev 2 rec  27
 cg2d: Sum(rhs),rhsMax =   1.55120865485969E-07  9.53489462017336E+00
 cg2d: Sum(rhs),rhsMax =   1.55139254331971E-07  9.53379796473590E+00
 cg2d: Sum(rhs),rhsMax =   1.55157977133058E-07  9.53265349278508E+00
 cg2d: Sum(rhs),rhsMax =   1.55177559690856E-07  9.53146190970211E+00
 cg2d: Sum(rhs),rhsMax =   1.55196872242414E-07  9.53022409993218E+00
 cg2d: Sum(rhs),rhsMax =   1.55217776409700E-07  9.52894117419179E+00
 cg2d: Sum(rhs),rhsMax =   1.55239746391089E-07  9.52761447991906E+00
 cg2d: Sum(rhs),rhsMax =   1.55262199541539E-07  9.52624557591358E+00
 cg2d: Sum(rhs),rhsMax =   1.55285547975836E-07  9.52483621148353E+00
 cg2d: Sum(rhs),rhsMax =   1.55309159310946E-07  9.52338829058677E+00
(PID.TID 0000.0001) whio : write lev 2 rec  28
 EXTERNAL_FIELDS_LOAD, it=   3600270 : Reading new data, i0,i1=    5    6 (prev=    4    5 )
 DIC_FIELDS_LOAD, it=   3600270 : Reading new data, i0,i1=    5    6 (prev=    4    5 )
 cg2d: Sum(rhs),rhsMax =   1.55333125917423E-07  9.52190383275775E+00
 cg2d: Sum(rhs),rhsMax =   1.55357760434072E-07  9.52040849624108E+00
 cg2d: Sum(rhs),rhsMax =   1.55382160471618E-07  9.51891947068100E+00
 cg2d: Sum(rhs),rhsMax =   1.55406148394377E-07  9.51745367919566E+00
 cg2d: Sum(rhs),rhsMax =   1.55429354720127E-07  9.51602742568744E+00
 cg2d: Sum(rhs),rhsMax =   1.55451743921731E-07  9.51465610729276E+00
 cg2d: Sum(rhs),rhsMax =   1.55473124152650E-07  9.51335394619066E+00
 cg2d: Sum(rhs),rhsMax =   1.55492962505832E-07  9.51213373174417E+00
 cg2d: Sum(rhs),rhsMax =   1.55511578725509E-07  9.51100656548303E+00
 cg2d: Sum(rhs),rhsMax =   1.55528049106124E-07  9.50998162351348E+00
 EXTERNAL_FIELDS_LOAD, it=   3600000 : Reading new data, i0,i1=   12    1 (prev=   12    6 )
 DIC_FIELDS_LOAD, it=   3600000 : Reading new data, i0,i1=   12    1 (prev=   12    0 )
 cg2d: Sum(rhs),rhsMax =   1.69318610687696E-07  8.73439699737069E+00
 cg2d: Sum(rhs),rhsMax =   1.69217777568065E-07  8.73957985685053E+00
 cg2d: Sum(rhs),rhsMax =   1.69116930237578E-07  8.74478996407667E+00
 cg2d: Sum(rhs),rhsMax =   1.69015713424869E-07  8.75002525197054E+00
 cg2d: Sum(rhs),rhsMax =   1.68913977915963E-07  8.75528319149979E+00
 cg2d: Sum(rhs),rhsMax =   1.68812391621032E-07  8.76056091159563E+00
 cg2d: Sum(rhs),rhsMax =   1.68710130310501E-07  8.76585531016545E+00
 cg2d: Sum(rhs),rhsMax =   1.68607783734842E-07  8.77116317961867E+00
 cg2d: Sum(rhs),rhsMax =   1.68505465580893E-07  8.77648131488675E+00
 cg2d: Sum(rhs),rhsMax =   1.68403296640918E-07  8.78180660701903E+00
 cg2d: Sum(rhs),rhsMax =   1.68301063752097E-07  8.78713610702002E+00
 cg2d: Sum(rhs),rhsMax =   1.68199015604387E-07  8.79246706727320E+00
 cg2d: Sum(rhs),rhsMax =   1.68096867980694E-07  8.79779694946195E+00
 cg2d: Sum(rhs),rhsMax =   1.67995075628369E-07  8.80312339652564E+00
 cg2d: Sum(rhs),rhsMax =   1.67893297486899E-07  8.80844419596376E+00
 cg2d: Sum(rhs),rhsMax =   1.67792002514489E-07  8.81375727000352E+00
 cg2d: Sum(rhs),rhsMax =   1.67690991759173E-07  8.81906074076855E+00
 cg2d: Sum(rhs),rhsMax =   1.67590364696935E-07  8.82435302858595E+00
 cg2d: Sum(rhs),rhsMax =   1.67489801583542E-07  8.82963296688162E+00
 cg2d: Sum(rhs),rhsMax =   1.67389771377202E-07  8.83489991268453E+00
 cg2d: Sum(rhs),rhsMax =   1.67290018282529E-07  8.84015381998810E+00
 cg2d: Sum(rhs),rhsMax =   1.67191025468583E-07  8.84539524558423E+00
 cg2d: Sum(rhs),rhsMax =   1.67091911862371E-07  8.85062527386172E+00
 cg2d: Sum(rhs),rhsMax =   1.66993110894964E-07  8.85584539161906E+00
 cg2d: Sum(rhs),rhsMax =   1.66895297581959E-07  8.86105731971219E+00
 cg2d: Sum(rhs),rhsMax =   1.66797214262715E-07  8.86626284368505E+00
 cg2d: Sum(rhs),rhsMax =   1.66699088310907E-07  8.87146368108963E+00
 cg2d: Sum(rhs),rhsMax =   1.66601175521919E-07  8.87666140941337E+00
 cg2d: Sum(rhs),rhsMax =   1.66503703269427E-07  8.88185744320308E+00
 cg2d: Sum(rhs),rhsMax =   1.66406401547192E-07  8.88705304968201E+00
 EXTERNAL_FIELDS_LOAD, it=   3600030 : Reading new data, i0,i1=    1    2 (prev=   12    1 )
 DIC_FIELDS_LOAD, it=   3600030 : Reading new data, i0,i1=    1    2 (prev=   12    1 )
 cg2d: Sum(rhs),rhsMax =   1.66308751659017E-07  8.89224939629417E+00
 cg2d: Sum(rhs),rhsMax =   1.66211989949261E-07  8.89742905273518E+00
 cg2d: Sum(rhs),rhsMax =   1.66115810884548E-07  8.90258194312370E+00
 cg2d: Sum(rhs),rhsMax =   1.66020008407486E-07  8.90769862985287E+00
 cg2d: Sum(rhs),rhsMax =   1.65925222006535E-07  8.91277064894441E+00
 cg2d: Sum(rhs),rhsMax =   1.65832325649262E-07  8.91779073567431E+00
 cg2d: Sum(rhs),rhsMax =   1.65739969304468E-07  8.92275296238945E+00
 cg2d: Sum(rhs),rhsMax =   1.65648664562923E-07  8.92765282308104E+00
 cg2d: Sum(rhs),rhsMax =   1.65559029596807E-07  8.93248727153984E+00
 cg2d: Sum(rhs),rhsMax =   1.65470908086718E-07  8.93725470683360E+00
 cg2d: Sum(rhs),rhsMax =   1.65383411854236E-07  8.94195490169141E+00
 cg2d: Sum(rhs),rhsMax =   1.65297855403423E-07  8.94658889014494E+00
 cg2d: Sum(rhs),rhsMax =   1.65213478453552E-07  8.95115882656284E+00
 cg2d: Sum(rhs),rhsMax =   1.65130131790647E-07  8.95566783046152E+00
 cg2d: Sum(rhs),rhsMax =   1.65047609357316E-07  8.96011984139981E+00
 cg2d: Sum(rhs),rhsMax =   1.64966841964542E-07  8.96451949805779E+00
 cg2d: Sum(rhs),rhsMax =   1.64886614584248E-07  8.96887204401274E+00
 cg2d: Sum(rhs),rhsMax =   1.64807353542074E-07  8.97318325974703E+00
 cg2d: Sum(rhs),rhsMax =   1.64728760410071E-07  8.97745941334167E+00
 cg2d: Sum(rhs),rhsMax =   1.64650550971146E-07  8.98170721084718E+00
 cg2d: Sum(rhs),rhsMax =   1.64573251026923E-07  8.98593374417503E+00
 cg2d: Sum(rhs),rhsMax =   1.64495830290434E-07  8.99014648706113E+00
 cg2d: Sum(rhs),rhsMax =   1.64419148518391E-07  8.99435313191228E+00
 cg2d: Sum(rhs),rhsMax =   1.64342466746348E-07  8.99856143301709E+00
 cg2d: Sum(rhs),rhsMax =   1.64265266278107E-07  9.00277891979376E+00
 cg2d: Sum(rhs),rhsMax =   1.64188094231577E-07  9.00701226475977E+00
 cg2d: Sum(rhs),rhsMax =   1.64110602440815E-07  9.01126800872608E+00
 cg2d: Sum(rhs),rhsMax =   1.64032670113556E-07  9.01555262481054E+00
 cg2d: Sum(rhs),rhsMax =   1.63954233300956E-07  9.01987189615712E+00
 cg2d: Sum(rhs),rhsMax =   1.63875164105320E-07  9.02423093235336E+00
 cg2d: Sum(rhs),rhsMax =   1.63795320418103E-07  9.02863410711437E+00
 cg2d: Sum(rhs),rhsMax =   1.63714346967936E-07  9.03308492807320E+00
 cg2d: Sum(rhs),rhsMax =   1.63633295358068E-07  9.03758589550099E+00
 cg2d: Sum(rhs),rhsMax =   1.63551085563540E-07  9.04213843256992E+00
 cg2d: Sum(rhs),rhsMax =   1.63468094172003E-07  9.04674278808053E+00
 cg2d: Sum(rhs),rhsMax =   1.63383937490380E-07  9.05139800068177E+00
 cg2d: Sum(rhs),rhsMax =   1.63299503697090E-07  9.05610191103194E+00
 cg2d: Sum(rhs),rhsMax =   1.63213783821448E-07  9.06085121060704E+00
 cg2d: Sum(rhs),rhsMax =   1.63127957364395E-07  9.06564152308058E+00
 cg2d: Sum(rhs),rhsMax =   1.63041192990931E-07  9.07046751690403E+00
 cg2d: Sum(rhs),rhsMax =   1.62954130189519E-07  9.07532304700718E+00
 cg2d: Sum(rhs),rhsMax =   1.62866854225285E-07  9.08020131376247E+00
 cg2d: Sum(rhs),rhsMax =   1.62779372203659E-07  9.08509502964907E+00
 cg2d: Sum(rhs),rhsMax =   1.62691954130878E-07  9.08999659239780E+00
 cg2d: Sum(rhs),rhsMax =   1.62604585796089E-07  9.09489817218861E+00
 cg2d: Sum(rhs),rhsMax =   1.62517501678394E-07  9.09979218349167E+00
 cg2d: Sum(rhs),rhsMax =   1.62430644934375E-07  9.10467101498796E+00
 cg2d: Sum(rhs),rhsMax =   1.62344292675698E-07  9.10952746457549E+00
 cg2d: Sum(rhs),rhsMax =   1.62258693592321E-07  9.11435477997425E+00
 cg2d: Sum(rhs),rhsMax =   1.62174011109073E-07  9.11914675387257E+00
 cg2d: Sum(rhs),rhsMax =   1.62089747846039E-07  9.12389782853965E+00
 cg2d: Sum(rhs),rhsMax =   1.62006273285442E-07  9.12860319621454E+00
 cg2d: Sum(rhs),rhsMax =   1.61924113228906E-07  9.13325897230795E+00
 cg2d: Sum(rhs),rhsMax =   1.61842727663952E-07  9.13786227569362E+00
 cg2d: Sum(rhs),rhsMax =   1.61762493178230E-07  9.14241138202085E+00
 cg2d: Sum(rhs),rhsMax =   1.61683040289518E-07  9.14690582567222E+00
 cg2d: Sum(rhs),rhsMax =   1.61604830850592E-07  9.15134644986131E+00
 cg2d: Sum(rhs),rhsMax =   1.61527417219531E-07  9.15573538211935E+00
 cg2d: Sum(rhs),rhsMax =   1.61451261249113E-07  9.16007592950651E+00
 cg2d: Sum(rhs),rhsMax =   1.61375858453994E-07  9.16437240256295E+00
 EXTERNAL_FIELDS_LOAD, it=   3600090 : Reading new data, i0,i1=    2    3 (prev=    1    2 )
 DIC_FIELDS_LOAD, it=   3600090 : Reading new data, i0,i1=    2    3 (prev=    1    2 )
 cg2d: Sum(rhs),rhsMax =   1.61301031198491E-07  9.16862988474514E+00
 cg2d: Sum(rhs),rhsMax =   1.61226488160082E-07  9.17287253571495E+00
 cg2d: Sum(rhs),rhsMax =   1.61152193811631E-07  9.17711746016568E+00
 cg2d: Sum(rhs),rhsMax =   1.61077544191812E-07  9.18138108877058E+00
 cg2d: Sum(rhs),rhsMax =   1.61002326137805E-07  9.18567861304476E+00
 cg2d: Sum(rhs),rhsMax =   1.60926205694523E-07  9.19002353014883E+00
 cg2d: Sum(rhs),rhsMax =   1.60849204178248E-07  9.19442728641192E+00
 cg2d: Sum(rhs),rhsMax =   1.60771165269580E-07  9.19889902438565E+00
 cg2d: Sum(rhs),rhsMax =   1.60691676853730E-07  9.20344543538162E+00
 cg2d: Sum(rhs),rhsMax =   1.60610625243862E-07  9.20807071616803E+00
 cg2d: Sum(rhs),rhsMax =   1.60529111781216E-07  9.21277660183589E+00
 cg2d: Sum(rhs),rhsMax =   1.60445615904337E-07  9.21756247694247E+00
 cg2d: Sum(rhs),rhsMax =   1.60361018686217E-07  9.22242554775714E+00
 cg2d: Sum(rhs),rhsMax =   1.60275249072583E-07  9.22736105179622E+00
 cg2d: Sum(rhs),rhsMax =   1.60188832865060E-07  9.23236249675336E+00
 cg2d: Sum(rhs),rhsMax =   1.60101009782920E-07  9.23742190581730E+00
 cg2d: Sum(rhs),rhsMax =   1.60012376682062E-07  9.24253005999046E+00
 cg2d: Sum(rhs),rhsMax =   1.59923374098980E-07  9.24767675774736E+00
 cg2d: Sum(rhs),rhsMax =   1.59833348334359E-07  9.25285099530738E+00
 cg2d: Sum(rhs),rhsMax =   1.59743947847346E-07  9.25804118480452E+00
 cg2d: Sum(rhs),rhsMax =   1.59654156561828E-07  9.26323537521839E+00
 cg2d: Sum(rhs),rhsMax =   1.59564649493404E-07  9.26842146305946E+00
 cg2d: Sum(rhs),rhsMax =   1.59475810335152E-07  9.27358734254206E+00
 cg2d: Sum(rhs),rhsMax =   1.59387511189379E-07  9.27872091717081E+00
 cg2d: Sum(rhs),rhsMax =   1.59299617052966E-07  9.28381136814303E+00
 cg2d: Sum(rhs),rhsMax =   1.59212980577195E-07  9.28884862895416E+00
 cg2d: Sum(rhs),rhsMax =   1.59127175436424E-07  9.29382345652557E+00
 cg2d: Sum(rhs),rhsMax =   1.59043672454118E-07  9.29872780684878E+00
 cg2d: Sum(rhs),rhsMax =   1.58960915541684E-07  9.30355510475018E+00
 cg2d: Sum(rhs),rhsMax =   1.58879650768995E-07  9.30830036704988E+00
 cg2d: Sum(rhs),rhsMax =   1.58800041560880E-07  9.31296021040285E+00
 cg2d: Sum(rhs),rhsMax =   1.58721938703366E-07  9.31753280098406E+00
 cg2d: Sum(rhs),rhsMax =   1.58645484304998E-07  9.32201775765958E+00
 cg2d: Sum(rhs),rhsMax =   1.58570394148683E-07  9.32641602969786E+00
 cg2d: Sum(rhs),rhsMax =   1.58496945346087E-07  9.33072978578710E+00
 cg2d: Sum(rhs),rhsMax =   1.58424988683237E-07  9.33496230239218E+00
 cg2d: Sum(rhs),rhsMax =   1.58354438895003E-07  9.33911784987238E+00
 cg2d: Sum(rhs),rhsMax =   1.58284855444890E-07  9.34320156451738E+00
 cg2d: Sum(rhs),rhsMax =   1.58217005719052E-07  9.34721929418330E+00
 cg2d: Sum(rhs),rhsMax =   1.58150037066207E-07  9.35117742178592E+00
 cg2d: Sum(rhs),rhsMax =   1.58083715007251E-07  9.35508267492027E+00
 cg2d: Sum(rhs),rhsMax =   1.58018764295775E-07  9.35894192419005E+00
 cg2d: Sum(rhs),rhsMax =   1.57953891744000E-07  9.36276197821802E+00
 cg2d: Sum(rhs),rhsMax =   1.57889999741201E-07  9.36654938518496E+00
 cg2d: Sum(rhs),rhsMax =   1.57826519853188E-07  9.37031025051024E+00
 cg2d: Sum(rhs),rhsMax =   1.57763658137355E-07  9.37405007348543E+00
 cg2d: Sum(rhs),rhsMax =   1.57700689840112E-07  9.37777361441556E+00
 cg2d: Sum(rhs),rhsMax =   1.57638105235947E-07  9.38148479575939E+00
 cg2d: Sum(rhs),rhsMax =   1.57575861692294E-07  9.38518664193280E+00
 cg2d: Sum(rhs),rhsMax =   1.57513689202915E-07  9.38888125563880E+00
 cg2d: Sum(rhs),rhsMax =   1.57451452764690E-07  9.39256983098558E+00
 cg2d: Sum(rhs),rhsMax =   1.57389870025781E-07  9.39625269423587E+00
 cg2d: Sum(rhs),rhsMax =   1.57327839644950E-07  9.39992937198207E+00
 cg2d: Sum(rhs),rhsMax =   1.57266605071982E-07  9.40359867449008E+00
 cg2d: Sum(rhs),rhsMax =   1.57205221285039E-07  9.40725878524180E+00
 cg2d: Sum(rhs),rhsMax =   1.57144384616004E-07  9.41090734419932E+00
 cg2d: Sum(rhs),rhsMax =   1.57083441365558E-07  9.41454153230469E+00
 cg2d: Sum(rhs),rhsMax =   1.57022817859342E-07  9.41815815729745E+00
 cg2d: Sum(rhs),rhsMax =   1.56962848052444E-07  9.42175373864234E+00
 cg2d: Sum(rhs),rhsMax =   1.56903354309179E-07  9.42532458834380E+00
 EXTERNAL_FIELDS_LOAD, it=   3600150 : Reading new data, i0,i1=    3    4 (prev=    2    3 )
 DIC_FIELDS_LOAD, it=   3600150 : Reading new data, i0,i1=    3    4 (prev=    2    3 )
 cg2d: Sum(rhs),rhsMax =   1.56844386367538E-07  9.42886688985512E+00
 cg2d: Sum(rhs),rhsMax =   1.56786050808932E-07  9.43235379724390E+00
 cg2d: Sum(rhs),rhsMax =   1.56729463185457E-07  9.43576817325861E+00
 cg2d: Sum(rhs),rhsMax =   1.56674040852067E-07  9.43909408079935E+00
 cg2d: Sum(rhs),rhsMax =   1.56620934887997E-07  9.44231724780375E+00
 cg2d: Sum(rhs),rhsMax =   1.56569370801662E-07  9.44542544012602E+00
 cg2d: Sum(rhs),rhsMax =   1.56519689653578E-07  9.44840873884622E+00
 cg2d: Sum(rhs),rhsMax =   1.56472822254727E-07  9.45125971609770E+00
 cg2d: Sum(rhs),rhsMax =   1.56427617525878E-07  9.45397350936240E+00
 cg2d: Sum(rhs),rhsMax =   1.56384757588057E-07  9.45654781865251E+00
 cg2d: Sum(rhs),rhsMax =   1.56344832191735E-07  9.45898283383023E+00
 cg2d: Sum(rhs),rhsMax =   1.56306633414260E-07  9.46128109723642E+00
 cg2d: Sum(rhs),rhsMax =   1.56271084961190E-07  9.46344731860571E+00
 cg2d: Sum(rhs),rhsMax =   1.56237142334703E-07  9.46548815348608E+00
 cg2d: Sum(rhs),rhsMax =   1.56205267387577E-07  9.46741194668024E+00
 cg2d: Sum(rhs),rhsMax =   1.56175239851564E-07  9.46922844872215E+00
 cg2d: Sum(rhs),rhsMax =   1.56147137886364E-07  9.47094849760508E+00
 cg2d: Sum(rhs),rhsMax =   1.56120208316679E-07  9.47258374009707E+00
 cg2d: Sum(rhs),rhsMax =   1.56094635883619E-07  9.47414632630027E+00
 cg2d: Sum(rhs),rhsMax =   1.56069631884748E-07  9.47564860958206E+00
 cg2d: Sum(rhs),rhsMax =   1.56045885546519E-07  9.47710285869683E+00
 cg2d: Sum(rhs),rhsMax =   1.56022359476538E-07  9.47852099456481E+00
 cg2d: Sum(rhs),rhsMax =   1.55999494211301E-07  9.47991435650409E+00
 cg2d: Sum(rhs),rhsMax =   1.55977154747688E-07  9.48129350219173E+00
 cg2d: Sum(rhs),rhsMax =   1.55954339220443E-07  9.48266804354933E+00
 cg2d: Sum(rhs),rhsMax =   1.55931793699438E-07  9.48404652431056E+00
 cg2d: Sum(rhs),rhsMax =   1.55909042121039E-07  9.48543632689988E+00
 cg2d: Sum(rhs),rhsMax =   1.55885821584434E-07  9.48684360539340E+00
 cg2d: Sum(rhs),rhsMax =   1.55862714734667E-07  9.48827325855926E+00
 cg2d: Sum(rhs),rhsMax =   1.55838826287891E-07  9.48972893204264E+00
 cg2d: Sum(rhs),rhsMax =   1.55814433355772E-07  9.49121303094114E+00
 cg2d: Sum(rhs),rhsMax =   1.55789983580235E-07  9.49272675313569E+00
 cg2d: Sum(rhs),rhsMax =   1.55764709575124E-07  9.49427013125867E+00
 cg2d: Sum(rhs),rhsMax =   1.55739108720354E-07  9.49584209100241E+00
 cg2d: Sum(rhs),rhsMax =   1.55712911009687E-07  9.49744052944898E+00
 cg2d: Sum(rhs),rhsMax =   1.55686521452481E-07  9.49906241013908E+00
 cg2d: Sum(rhs),rhsMax =   1.55659733991342E-07  9.50070387273709E+00
 cg2d: Sum(rhs),rhsMax =   1.55632626785973E-07  9.50236035485632E+00
 cg2d: Sum(rhs),rhsMax =   1.55605491158894E-07  9.50402672184669E+00
 cg2d: Sum(rhs),rhsMax =   1.55578298688397E-07  9.50569741335586E+00
 cg2d: Sum(rhs),rhsMax =   1.55551077796190E-07  9.50736658442417E+00
 cg2d: Sum(rhs),rhsMax =   1.55523885325692E-07  9.50902827319058E+00
 cg2d: Sum(rhs),rhsMax =   1.55497183129683E-07  9.51067651838719E+00
 cg2d: Sum(rhs),rhsMax =   1.55470786467049E-07  9.51230545785063E+00
 cg2d: Sum(rhs),rhsMax =   1.55444702443219E-07  9.51390942883206E+00
 cg2d: Sum(rhs),rhsMax =   1.55418959479903E-07  9.51548308991335E+00
 cg2d: Sum(rhs),rhsMax =   1.55394317857827E-07  9.51702152785329E+00
 cg2d: Sum(rhs),rhsMax =   1.55369711762887E-07  9.51852032989996E+00
 cg2d: Sum(rhs),rhsMax =   1.55346036478932E-07  9.51997562350372E+00
 cg2d: Sum(rhs),rhsMax =   1.55323576223054E-07  9.52138408524577E+00
 cg2d: Sum(rhs),rhsMax =   1.55301350446280E-07  9.52274293287698E+00
 cg2d: Sum(rhs),rhsMax =   1.55280744706943E-07  9.52404992562530E+00
 cg2d: Sum(rhs),rhsMax =   1.55260174494742E-07  9.52530334700116E+00
 cg2d: Sum(rhs),rhsMax =   1.55241302479681E-07  9.52650198435958E+00
 cg2d: Sum(rhs),rhsMax =   1.55222487308038E-07  9.52764509643312E+00
 cg2d: Sum(rhs),rhsMax =   1.55204908480755E-07  9.52873236598035E+00
 cg2d: Sum(rhs),rhsMax =   1.55188487838132E-07  9.52976385013957E+00
 cg2d: Sum(rhs),rhsMax =   1.55173047744483E-07  9.53073993449898E+00
 cg2d: Sum(rhs),rhsMax =   1.55157991343913E-07  9.53166115429964E+00
 cg2d: Sum(rhs),rhsMax =   1.55143979441164E-07  9.53252820084563E+00
 EXTERNAL_FIELDS_LOAD, it=   3600210 : Reading new data, i0,i1=    4    5 (prev=    3    4 )
 DIC_FIELDS_LOAD, it=   3600210 : Reading new data, i0,i1=    4    5 (prev=    3    4 )
 cg2d: Sum(rhs),rhsMax =   1.55130905454826E-07  9.53334182315816E+00
 cg2d: Sum(rhs),rhsMax =   1.55118726752335E-07  9.53411543180110E+00
 cg2d: Sum(rhs),rhsMax =   1.55106960164630E-07  9.53485647400445E+00
 cg2d: Sum(rhs),rhsMax =   1.55095513321157E-07  9.53557144961540E+00
 cg2d: Sum(rhs),rhsMax =   1.55084286745932E-07  9.53626437508729E+00
 cg2d: Sum(rhs),rhsMax =   1.55073522023486E-07  9.53693893005197E+00
 cg2d: Sum(rhs),rhsMax =   1.55063091256125E-07  9.53759780592152E+00
 cg2d: Sum(rhs),rhsMax =   1.55052710226755E-07  9.53824281869492E+00
 cg2d: Sum(rhs),rhsMax =   1.55042712890463E-07  9.53887512481608E+00
 cg2d: Sum(rhs),rhsMax =   1.55032850557291E-07  9.53949557057448E+00
 cg2d: Sum(rhs),rhsMax =   1.55023101910956E-07  9.54010511361926E+00
 cg2d: Sum(rhs),rhsMax =   1.55013388791758E-07  9.54070462884507E+00
 cg2d: Sum(rhs),rhsMax =   1.55003839097390E-07  9.54129438984927E+00
 cg2d: Sum(rhs),rhsMax =   1.54994630463534E-07  9.54187344979344E+00
 cg2d: Sum(rhs),rhsMax =   1.54985528411089E-07  9.54243967644670E+00
 cg2d: Sum(rhs),rhsMax =   1.54976746102875E-07  9.54298998248434E+00
 cg2d: Sum(rhs),rhsMax =   1.54968013532653E-07  9.54352062450418E+00
 cg2d: Sum(rhs),rhsMax =   1.54960090981149E-07  9.54402746047673E+00
 cg2d: Sum(rhs),rhsMax =   1.54952580544432E-07  9.54450615312909E+00
 cg2d: Sum(rhs),rhsMax =   1.54945666963613E-07  9.54495237452022E+00
 cg2d: Sum(rhs),rhsMax =   1.54939364449547E-07  9.54536198175505E+00
 cg2d: Sum(rhs),rhsMax =   1.54933822216208E-07  9.54573114963606E+00
 cg2d: Sum(rhs),rhsMax =   1.54929239215562E-07  9.54605645054606E+00
 cg2d: Sum(rhs),rhsMax =   1.54924848061455E-07  9.54633494356549E+00
 cg2d: Sum(rhs),rhsMax =   1.54921565354016E-07  9.54656419952745E+00
 cg2d: Sum(rhs),rhsMax =   1.54919064243586E-07  9.54674232632412E+00
 cg2d: Sum(rhs),rhsMax =   1.54917373151875E-07  9.54686796832826E+00
 cg2d: Sum(rhs),rhsMax =   1.54916946826233E-07  9.54694028672918E+00
 cg2d: Sum(rhs),rhsMax =   1.54916875771960E-07  9.54695891768134E+00
 cg2d: Sum(rhs),rhsMax =   1.54917948691491E-07  9.54692390677095E+00
 cg2d: Sum(rhs),rhsMax =   1.54919810313459E-07  9.54683563674691E+00
 cg2d: Sum(rhs),rhsMax =   1.54922318529316E-07  9.54669476235123E+00
 cg2d: Sum(rhs),rhsMax =   1.54925821505003E-07  9.54650214870757E+00
 cg2d: Sum(rhs),rhsMax =   1.54930418716503E-07  9.54625877741125E+00
 cg2d: Sum(rhs),rhsMax =   1.54935570151338E-07  9.54596567399769E+00
 cg2d: Sum(rhs),rhsMax =   1.54941183438950E-07  9.54562385805509E+00
 cg2d: Sum(rhs),rhsMax =   1.54948246233744E-07  9.54523428743093E+00
 cg2d: Sum(rhs),rhsMax =   1.54955742459606E-07  9.54479779933890E+00
 cg2d: Sum(rhs),rhsMax =   1.54963636589400E-07  9.54431503841889E+00
 cg2d: Sum(rhs),rhsMax =   1.54972831012401E-07  9.54378641947086E+00
 cg2d: Sum(rhs),rhsMax =   1.54982579658736E-07  9.54321212532785E+00
 cg2d: Sum(rhs),rhsMax =   1.54992825684985E-07  9.54259212879030E+00
 cg2d: Sum(rhs),rhsMax =   1.55004265423031E-07  9.54192622626502E+00
 cg2d: Sum(rhs),rhsMax =   1.55016344649539E-07  9.54121407389056E+00
 cg2d: Sum(rhs),rhsMax =   1.55028779147415E-07  9.54045522146809E+00
 cg2d: Sum(rhs),rhsMax =   1.55042492622215E-07  9.53964914739889E+00
 cg2d: Sum(rhs),rhsMax =   1.55056454786973E-07  9.53879530565145E+00
 cg2d: Sum(rhs),rhsMax =   1.55071575136390E-07  9.53789320117186E+00
 cg2d: Sum(rhs),rhsMax =   1.55087299447132E-07  9.53694245990867E+00
 cg2d: Sum(rhs),rhsMax =   1.55103904830867E-07  9.53594290333437E+00
 cg2d: Sum(rhs),rhsMax =   1.55120865485969E-07  9.53489462017336E+00
 cg2d: Sum(rhs),rhsMax =   1.55139254331971E-07  9.53379796473590E+00
 cg2d: Sum(rhs),rhsMax =   1.55157977133058E-07  9.53265349278508E+00
 cg2d: Sum(rhs),rhsMax =   1.55177559690856E-07  9.53146190970211E+00
 cg2d: Sum(rhs),rhsMax =   1.55196872242414E-07  9.53022409993218E+00
 cg2d: Sum(rhs),rhsMax =   1.55217776409700E-07  9.52894117419179E+00
 cg2d: Sum(rhs),rhsMax =   1.55239746391089E-07  9.52761447991906E+00
 cg2d: Sum(rhs),rhsMax =   1.55262199541539E-07  9.52624557591358E+00
 cg2d: Sum(rhs),rhsMax =   1.55285547975836E-07  9.52483621148353E+00
 cg2d: Sum(rhs),rhsMax =   1.55309159310946E-07  9.52338829058677E+00
 EXTERNAL_FIELDS_LOAD, it=   3600270 : Reading new data, i0,i1=    5    6 (prev=    4    5 )
 DIC_FIELDS_LOAD, it=   3600270 : Reading new data, i0,i1=    5    6 (prev=    4    5 )
 cg2d: Sum(rhs),rhsMax =  -2.56638088558248E-09  9.52190357006382E+00
 cg2d: Sum(rhs),rhsMax =  -2.56670062981357E-09  9.52040823938504E+00
 cg2d: Sum(rhs),rhsMax =  -2.56715537716445E-09  9.51891921226863E+00
 cg2d: Sum(rhs),rhsMax =  -2.56777354934457E-09  9.51745340462202E+00
 cg2d: Sum(rhs),rhsMax =  -2.56770249507099E-09  9.51602711494609E+00
 cg2d: Sum(rhs),rhsMax =  -2.56798671216529E-09  9.51465573924452E+00
 cg2d: Sum(rhs),rhsMax =  -2.56825671840488E-09  9.51335350343188E+00
 cg2d: Sum(rhs),rhsMax =  -2.56896726114064E-09  9.51213320392126E+00
 cg2d: Sum(rhs),rhsMax =  -2.56900278827743E-09  9.51100595024932E+00
 cg2d: Sum(rhs),rhsMax =  -2.56940069220946E-09  9.50998092577421E+00
 EXTERNAL_FIELDS_LOAD, it=   3600270 : Reading new data, i0,i1=    5    6 (prev=    4    6 )
 DIC_FIELDS_LOAD, it=   3600270 : Reading new data, i0,i1=    5    6 (prev=    4    5 )
 cg2d: Sum(rhs),rhsMax =  -2.56638088558248E-09  9.52190357006382E+00
 cg2d: Sum(rhs),rhsMax =  -2.56670062981357E-09  9.52040823938504E+00
 cg2d: Sum(rhs),rhsMax =  -2.56715537716445E-09  9.51891921226863E+00
 cg2d: Sum(rhs),rhsMax =  -2.56777354934457E-09  9.51745340462202E+00
 cg2d: Sum(rhs),rhsMax =  -2.56770249507099E-09  9.51602711494609E+00
 cg2d: Sum(rhs),rhsMax =  -2.56798671216529E-09  9.51465573924452E+00
 cg2d: Sum(rhs),rhsMax =  -2.56825671840488E-09  9.51335350343188E+00
 cg2d: Sum(rhs),rhsMax =  -2.56896726114064E-09  9.51213320392126E+00
 cg2d: Sum(rhs),rhsMax =  -2.56900278827743E-09  9.51100595024932E+00
 cg2d: Sum(rhs),rhsMax =  -1.43985246836564E-07  9.50998072576533E+00
 cg2d: Sum(rhs),rhsMax =   4.49174031302846E-12  5.69313282273175E-02
 EXTERNAL_FIELDS_LOAD, it=   3600270 : Reading new data, i0,i1=    5    6 (prev=    4    6 )
 DIC_FIELDS_LOAD, it=   3600270 : Reading new data, i0,i1=    5    6 (prev=    4    5 )
 cg2d: Sum(rhs),rhsMax =  -2.56638088558248E-09  9.52190357006382E+00
 cg2d: Sum(rhs),rhsMax =  -2.56670062981357E-09  9.52040823938504E+00
 cg2d: Sum(rhs),rhsMax =  -2.56715537716445E-09  9.51891921226863E+00
 cg2d: Sum(rhs),rhsMax =  -2.56777354934457E-09  9.51745340462202E+00
 cg2d: Sum(rhs),rhsMax =  -2.56770249507099E-09  9.51602711494609E+00
 cg2d: Sum(rhs),rhsMax =  -2.56798671216529E-09  9.51465573924452E+00
 cg2d: Sum(rhs),rhsMax =  -2.56825671840488E-09  9.51335350343188E+00
 cg2d: Sum(rhs),rhsMax =  -2.56896726114064E-09  9.51213320392126E+00
 cg2d: Sum(rhs),rhsMax =  -5.42749027943046E-07  9.51100565426329E+00
 cg2d: Sum(rhs),rhsMax =   4.44067005389570E-12  5.70133214741586E-02
 EXTERNAL_FIELDS_LOAD, it=   3600270 : Reading new data, i0,i1=    5    6 (prev=    4    6 )
 DIC_FIELDS_LOAD, it=   3600270 : Reading new data, i0,i1=    5    6 (prev=    4    5 )
 cg2d: Sum(rhs),rhsMax =  -2.56638088558248E-09  9.52190357006382E+00
 cg2d: Sum(rhs),rhsMax =  -2.56670062981357E-09  9.52040823938504E+00
 cg2d: Sum(rhs),rhsMax =  -2.56715537716445E-09  9.51891921226863E+00
 cg2d: Sum(rhs),rhsMax =  -2.56777354934457E-09  9.51745340462202E+00
 cg2d: Sum(rhs),rhsMax =  -2.56770249507099E-09  9.51602711494609E+00
 cg2d: Sum(rhs),rhsMax =  -2.56798671216529E-09  9.51465573924452E+00
 cg2d: Sum(rhs),rhsMax =  -2.56825671840488E-09  9.51335350343188E+00
 cg2d: Sum(rhs),rhsMax =   4.12989962228494E-07  9.51213303200093E+00
 cg2d: Sum(rhs),rhsMax =   4.43423076035288E-12  5.67381625874513E-02
 EXTERNAL_FIELDS_LOAD, it=   3600270 : Reading new data, i0,i1=    5    6 (prev=    4    6 )
 DIC_FIELDS_LOAD, it=   3600270 : Reading new data, i0,i1=    5    6 (prev=    4    5 )
 cg2d: Sum(rhs),rhsMax =  -2.56638088558248E-09  9.52190357006382E+00
 cg2d: Sum(rhs),rhsMax =  -2.56670062981357E-09  9.52040823938504E+00
 cg2d: Sum(rhs),rhsMax =  -2.56715537716445E-09  9.51891921226863E+00
 cg2d: Sum(rhs),rhsMax =  -2.56777354934457E-09  9.51745340462202E+00
 cg2d: Sum(rhs),rhsMax =  -2.56770249507099E-09  9.51602711494609E+00
 cg2d: Sum(rhs),rhsMax =  -2.56798671216529E-09  9.51465573924452E+00
 cg2d: Sum(rhs),rhsMax =   7.84384340590805E-07  9.51335388229619E+00
 cg2d: Sum(rhs),rhsMax =   4.41691128116872E-12  5.66602759220940E-02
 EXTERNAL_FIELDS_LOAD, it=   3600270 : Reading new data, i0,i1=    5    6 (prev=    4    6 )
 DIC_FIELDS_LOAD, it=   3600270 : Reading new data, i0,i1=    5    6 (prev=    4    5 )
 cg2d: Sum(rhs),rhsMax =  -2.56638088558248E-09  9.52190357006382E+00
 cg2d: Sum(rhs),rhsMax =  -2.56670062981357E-09  9.52040823938504E+00
 cg2d: Sum(rhs),rhsMax =  -2.56715537716445E-09  9.51891921226863E+00
 cg2d: Sum(rhs),rhsMax =  -2.56777354934457E-09  9.51745340462202E+00
 cg2d: Sum(rhs),rhsMax =  -2.56770249507099E-09  9.51602711494609E+00
 cg2d: Sum(rhs),rhsMax =   1.38190920040415E-07  9.51465591305298E+00
 cg2d: Sum(rhs),rhsMax =   4.36295444217194E-12  5.66748862639184E-02
 EXTERNAL_FIELDS_LOAD, it=   3600270 : Reading new data, i0,i1=    5    6 (prev=    4    6 )
 DIC_FIELDS_LOAD, it=   3600270 : Reading new data, i0,i1=    5    6 (prev=    4    5 )
 cg2d: Sum(rhs),rhsMax =  -2.56638088558248E-09  9.52190357006382E+00
 cg2d: Sum(rhs),rhsMax =  -2.56670062981357E-09  9.52040823938504E+00
 cg2d: Sum(rhs),rhsMax =  -2.56715537716445E-09  9.51891921226863E+00
 cg2d: Sum(rhs),rhsMax =  -2.56777354934457E-09  9.51745340462202E+00
 cg2d: Sum(rhs),rhsMax =  -1.19228644734903E-07  9.51602734316975E+00
 cg2d: Sum(rhs),rhsMax =   4.32232027947066E-12  5.66565164287352E-02
 EXTERNAL_FIELDS_LOAD, it=   3600270 : Reading new data, i0,i1=    5    6 (prev=    4    6 )
 DIC_FIELDS_LOAD, it=   3600270 : Reading new data, i0,i1=    5    6 (prev=    4    5 )
 cg2d: Sum(rhs),rhsMax =  -2.56638088558248E-09  9.52190357006382E+00
 cg2d: Sum(rhs),rhsMax =  -2.56670062981357E-09  9.52040823938504E+00
 cg2d: Sum(rhs),rhsMax =  -2.56715537716445E-09  9.51891921226863E+00
 cg2d: Sum(rhs),rhsMax =  -1.07401479709779E-06  9.51745307335515E+00
 cg2d: Sum(rhs),rhsMax =   4.34030589246959E-12  5.60513766437598E-02
 EXTERNAL_FIELDS_LOAD, it=   3600270 : Reading new data, i0,i1=    5    6 (prev=    4    6 )
 DIC_FIELDS_LOAD, it=   3600270 : Reading new data, i0,i1=    5    6 (prev=    4    5 )
 cg2d: Sum(rhs),rhsMax =  -2.56638088558248E-09  9.52190357006382E+00
 cg2d: Sum(rhs),rhsMax =  -2.56670062981357E-09  9.52040823938504E+00
 cg2d: Sum(rhs),rhsMax =  -3.59428334206768E-07  9.51891923349871E+00
 cg2d: Sum(rhs),rhsMax =   4.38071801056594E-12  5.47189423024007E-02
 EXTERNAL_FIELDS_LOAD, it=   3600270 : Reading new data, i0,i1=    5    6 (prev=    4    6 )
 DIC_FIELDS_LOAD, it=   3600270 : Reading new data, i0,i1=    5    6 (prev=    4    5 )
 cg2d: Sum(rhs),rhsMax =  -2.56638088558248E-09  9.52190357006382E+00
 cg2d: Sum(rhs),rhsMax =  -3.46390130800955E-07  9.52040860514247E+00
 cg2d: Sum(rhs),rhsMax =   4.84656759169866E-12  4.89492373753872E-02
 EXTERNAL_FIELDS_LOAD, it=   3600270 : Reading new data, i0,i1=    5    6 (prev=    4    6 )
 DIC_FIELDS_LOAD, it=   3600270 : Reading new data, i0,i1=    5    6 (prev=    4    5 )
 cg2d: Sum(rhs),rhsMax =  -2.56658694297585E-09  9.52190357008142E+00
 cg2d: Sum(rhs),rhsMax =   4.92184071276824E-12  4.81013994763850E-02
 EXTERNAL_FIELDS_LOAD, it=   3600000 : Reading new data, i0,i1=   12    1 (prev=   12    6 )
 DIC_FIELDS_LOAD, it=   3600000 : Reading new data, i0,i1=   12    1 (prev=   12    0 )
 cg2d: Sum(rhs),rhsMax =   1.69318610687696E-07  8.73439699737069E+00
 cg2d: Sum(rhs),rhsMax =   1.69217777568065E-07  8.73957985685053E+00
 cg2d: Sum(rhs),rhsMax =   1.69116930237578E-07  8.74478996407667E+00
 cg2d: Sum(rhs),rhsMax =   1.69015713424869E-07  8.75002525197054E+00
 cg2d: Sum(rhs),rhsMax =   1.68913977915963E-07  8.75528319149979E+00
 cg2d: Sum(rhs),rhsMax =   1.68812391621032E-07  8.76056091159563E+00
 cg2d: Sum(rhs),rhsMax =   1.68710130310501E-07  8.76585531016545E+00
 cg2d: Sum(rhs),rhsMax =   1.68607783734842E-07  8.77116317961867E+00
 cg2d: Sum(rhs),rhsMax =   1.68505465580893E-07  8.77648131488675E+00
 cg2d: Sum(rhs),rhsMax =   1.68403296640918E-07  8.78180660701903E+00
 cg2d: Sum(rhs),rhsMax =   1.68301063752097E-07  8.78713610702002E+00
 cg2d: Sum(rhs),rhsMax =   1.68199015604387E-07  8.79246706727320E+00
 cg2d: Sum(rhs),rhsMax =   1.68096867980694E-07  8.79779694946195E+00
 cg2d: Sum(rhs),rhsMax =   1.67995075628369E-07  8.80312339652564E+00
 cg2d: Sum(rhs),rhsMax =   1.67893297486899E-07  8.80844419596376E+00
 cg2d: Sum(rhs),rhsMax =   1.67792002514489E-07  8.81375727000352E+00
 cg2d: Sum(rhs),rhsMax =   1.67690991759173E-07  8.81906074076855E+00
 cg2d: Sum(rhs),rhsMax =   1.67590364696935E-07  8.82435302858595E+00
 cg2d: Sum(rhs),rhsMax =   1.67489801583542E-07  8.82963296688162E+00
 cg2d: Sum(rhs),rhsMax =   1.67389771377202E-07  8.83489991268453E+00
 cg2d: Sum(rhs),rhsMax =   1.67290018282529E-07  8.84015381998810E+00
 cg2d: Sum(rhs),rhsMax =   1.67191025468583E-07  8.84539524558423E+00
 cg2d: Sum(rhs),rhsMax =   1.67091911862371E-07  8.85062527386172E+00
 cg2d: Sum(rhs),rhsMax =   1.66993110894964E-07  8.85584539161906E+00
 cg2d: Sum(rhs),rhsMax =   1.66895297581959E-07  8.86105731971219E+00
 cg2d: Sum(rhs),rhsMax =   1.66797214262715E-07  8.86626284368505E+00
 cg2d: Sum(rhs),rhsMax =   1.66699088310907E-07  8.87146368108963E+00
 cg2d: Sum(rhs),rhsMax =   1.66601175521919E-07  8.87666140941337E+00
 cg2d: Sum(rhs),rhsMax =   1.66503703269427E-07  8.88185744320308E+00
 cg2d: Sum(rhs),rhsMax =   1.66406401547192E-07  8.88705304968201E+00
 EXTERNAL_FIELDS_LOAD, it=   3600030 : Reading new data, i0,i1=    1    2 (prev=   12    1 )
 DIC_FIELDS_LOAD, it=   3600030 : Reading new data, i0,i1=    1    2 (prev=   12    1 )
 cg2d: Sum(rhs),rhsMax =   1.66308751659017E-07  8.89224939629417E+00
 cg2d: Sum(rhs),rhsMax =   1.66211989949261E-07  8.89742905273518E+00
 cg2d: Sum(rhs),rhsMax =   1.66115810884548E-07  8.90258194312370E+00
 cg2d: Sum(rhs),rhsMax =   1.66020008407486E-07  8.90769862985287E+00
 cg2d: Sum(rhs),rhsMax =   1.65925222006535E-07  8.91277064894441E+00
 cg2d: Sum(rhs),rhsMax =   1.65832325649262E-07  8.91779073567431E+00
 cg2d: Sum(rhs),rhsMax =   1.65739969304468E-07  8.92275296238945E+00
 cg2d: Sum(rhs),rhsMax =   1.65648664562923E-07  8.92765282308104E+00
 cg2d: Sum(rhs),rhsMax =   1.65559029596807E-07  8.93248727153984E+00
 cg2d: Sum(rhs),rhsMax =   1.65470908086718E-07  8.93725470683360E+00
 cg2d: Sum(rhs),rhsMax =   1.65383411854236E-07  8.94195490169141E+00
 cg2d: Sum(rhs),rhsMax =   1.65297855403423E-07  8.94658889014494E+00
 cg2d: Sum(rhs),rhsMax =   1.65213478453552E-07  8.95115882656284E+00
 cg2d: Sum(rhs),rhsMax =   1.65130131790647E-07  8.95566783046152E+00
 cg2d: Sum(rhs),rhsMax =   1.65047609357316E-07  8.96011984139981E+00
 cg2d: Sum(rhs),rhsMax =   1.64966841964542E-07  8.96451949805779E+00
 cg2d: Sum(rhs),rhsMax =   1.64886614584248E-07  8.96887204401274E+00
 cg2d: Sum(rhs),rhsMax =   1.64807353542074E-07  8.97318325974703E+00
 cg2d: Sum(rhs),rhsMax =   1.64728760410071E-07  8.97745941334167E+00
 cg2d: Sum(rhs),rhsMax =   1.64650550971146E-07  8.98170721084718E+00
 cg2d: Sum(rhs),rhsMax =   1.64573251026923E-07  8.98593374417503E+00
 cg2d: Sum(rhs),rhsMax =   1.64495830290434E-07  8.99014648706113E+00
 cg2d: Sum(rhs),rhsMax =   1.64419148518391E-07  8.99435313191228E+00
 cg2d: Sum(rhs),rhsMax =   1.64342466746348E-07  8.99856143301709E+00
 cg2d: Sum(rhs),rhsMax =   1.64265266278107E-07  9.00277891979376E+00
 cg2d: Sum(rhs),rhsMax =   1.64188094231577E-07  9.00701226475977E+00
 cg2d: Sum(rhs),rhsMax =   1.64110602440815E-07  9.01126800872608E+00
 cg2d: Sum(rhs),rhsMax =   1.64032670113556E-07  9.01555262481054E+00
 cg2d: Sum(rhs),rhsMax =   1.63954233300956E-07  9.01987189615712E+00
 cg2d: Sum(rhs),rhsMax =   1.63875164105320E-07  9.02423093235336E+00
 cg2d: Sum(rhs),rhsMax =   1.63795320418103E-07  9.02863410711437E+00
 cg2d: Sum(rhs),rhsMax =   1.63714346967936E-07  9.03308492807320E+00
 cg2d: Sum(rhs),rhsMax =   1.63633295358068E-07  9.03758589550099E+00
 cg2d: Sum(rhs),rhsMax =   1.63551085563540E-07  9.04213843256992E+00
 cg2d: Sum(rhs),rhsMax =   1.63468094172003E-07  9.04674278808053E+00
 cg2d: Sum(rhs),rhsMax =   1.63383937490380E-07  9.05139800068177E+00
 cg2d: Sum(rhs),rhsMax =   1.63299503697090E-07  9.05610191103194E+00
 cg2d: Sum(rhs),rhsMax =   1.63213783821448E-07  9.06085121060704E+00
 cg2d: Sum(rhs),rhsMax =   1.63127957364395E-07  9.06564152308058E+00
 cg2d: Sum(rhs),rhsMax =   1.63041192990931E-07  9.07046751690403E+00
 cg2d: Sum(rhs),rhsMax =   1.62954130189519E-07  9.07532304700718E+00
 cg2d: Sum(rhs),rhsMax =   1.62866854225285E-07  9.08020131376247E+00
 cg2d: Sum(rhs),rhsMax =   1.62779372203659E-07  9.08509502964907E+00
 cg2d: Sum(rhs),rhsMax =   1.62691954130878E-07  9.08999659239780E+00
 cg2d: Sum(rhs),rhsMax =   1.62604585796089E-07  9.09489817218861E+00
 cg2d: Sum(rhs),rhsMax =   1.62517501678394E-07  9.09979218349167E+00
 cg2d: Sum(rhs),rhsMax =   1.62430644934375E-07  9.10467101498796E+00
 cg2d: Sum(rhs),rhsMax =   1.62344292675698E-07  9.10952746457549E+00
 cg2d: Sum(rhs),rhsMax =   1.62258693592321E-07  9.11435477997425E+00
 cg2d: Sum(rhs),rhsMax =   1.62174011109073E-07  9.11914675387257E+00
 cg2d: Sum(rhs),rhsMax =   1.62089747846039E-07  9.12389782853965E+00
 cg2d: Sum(rhs),rhsMax =   1.62006273285442E-07  9.12860319621454E+00
 cg2d: Sum(rhs),rhsMax =   1.61924113228906E-07  9.13325897230795E+00
 cg2d: Sum(rhs),rhsMax =   1.61842727663952E-07  9.13786227569362E+00
 cg2d: Sum(rhs),rhsMax =   1.61762493178230E-07  9.14241138202085E+00
 cg2d: Sum(rhs),rhsMax =   1.61683040289518E-07  9.14690582567222E+00
 cg2d: Sum(rhs),rhsMax =   1.61604830850592E-07  9.15134644986131E+00
 cg2d: Sum(rhs),rhsMax =   1.61527417219531E-07  9.15573538211935E+00
 cg2d: Sum(rhs),rhsMax =   1.61451261249113E-07  9.16007592950651E+00
 cg2d: Sum(rhs),rhsMax =   1.61375858453994E-07  9.16437240256295E+00
 EXTERNAL_FIELDS_LOAD, it=   3600090 : Reading new data, i0,i1=    2    3 (prev=    1    2 )
 DIC_FIELDS_LOAD, it=   3600090 : Reading new data, i0,i1=    2    3 (prev=    1    2 )
 cg2d: Sum(rhs),rhsMax =   1.61301031198491E-07  9.16862988474514E+00
 cg2d: Sum(rhs),rhsMax =   1.61226488160082E-07  9.17287253571495E+00
 cg2d: Sum(rhs),rhsMax =   1.61152193811631E-07  9.17711746016568E+00
 cg2d: Sum(rhs),rhsMax =   1.61077544191812E-07  9.18138108877058E+00
 cg2d: Sum(rhs),rhsMax =   1.61002326137805E-07  9.18567861304476E+00
 cg2d: Sum(rhs),rhsMax =   1.60926205694523E-07  9.19002353014883E+00
 cg2d: Sum(rhs),rhsMax =   1.60849204178248E-07  9.19442728641192E+00
 cg2d: Sum(rhs),rhsMax =   1.60771165269580E-07  9.19889902438565E+00
 cg2d: Sum(rhs),rhsMax =   1.60691676853730E-07  9.20344543538162E+00
 cg2d: Sum(rhs),rhsMax =   1.60610625243862E-07  9.20807071616803E+00
 cg2d: Sum(rhs),rhsMax =   1.60529111781216E-07  9.21277660183589E+00
 cg2d: Sum(rhs),rhsMax =   1.60445615904337E-07  9.21756247694247E+00
 cg2d: Sum(rhs),rhsMax =   1.60361018686217E-07  9.22242554775714E+00
 cg2d: Sum(rhs),rhsMax =   1.60275249072583E-07  9.22736105179622E+00
 cg2d: Sum(rhs),rhsMax =   1.60188832865060E-07  9.23236249675336E+00
 cg2d: Sum(rhs),rhsMax =   1.60101009782920E-07  9.23742190581730E+00
 cg2d: Sum(rhs),rhsMax =   1.60012376682062E-07  9.24253005999046E+00
 cg2d: Sum(rhs),rhsMax =   1.59923374098980E-07  9.24767675774736E+00
 cg2d: Sum(rhs),rhsMax =   1.59833348334359E-07  9.25285099530738E+00
 cg2d: Sum(rhs),rhsMax =   1.59743947847346E-07  9.25804118480452E+00
 cg2d: Sum(rhs),rhsMax =   1.59654156561828E-07  9.26323537521839E+00
 cg2d: Sum(rhs),rhsMax =   1.59564649493404E-07  9.26842146305946E+00
 cg2d: Sum(rhs),rhsMax =   1.59475810335152E-07  9.27358734254206E+00
 cg2d: Sum(rhs),rhsMax =   1.59387511189379E-07  9.27872091717081E+00
 cg2d: Sum(rhs),rhsMax =   1.59299617052966E-07  9.28381136814303E+00
 cg2d: Sum(rhs),rhsMax =   1.59212980577195E-07  9.28884862895416E+00
 cg2d: Sum(rhs),rhsMax =   1.59127175436424E-07  9.29382345652557E+00
 cg2d: Sum(rhs),rhsMax =   1.59043672454118E-07  9.29872780684878E+00
 cg2d: Sum(rhs),rhsMax =   1.58960915541684E-07  9.30355510475018E+00
 cg2d: Sum(rhs),rhsMax =   1.58879650768995E-07  9.30830036704988E+00
 cg2d: Sum(rhs),rhsMax =   1.58800041560880E-07  9.31296021040285E+00
 cg2d: Sum(rhs),rhsMax =   1.58721938703366E-07  9.31753280098406E+00
 cg2d: Sum(rhs),rhsMax =   1.58645484304998E-07  9.32201775765958E+00
 cg2d: Sum(rhs),rhsMax =   1.58570394148683E-07  9.32641602969786E+00
 cg2d: Sum(rhs),rhsMax =   1.58496945346087E-07  9.33072978578710E+00
 cg2d: Sum(rhs),rhsMax =   1.58424988683237E-07  9.33496230239218E+00
 cg2d: Sum(rhs),rhsMax =   1.58354438895003E-07  9.33911784987238E+00
 cg2d: Sum(rhs),rhsMax =   1.58284855444890E-07  9.34320156451738E+00
 cg2d: Sum(rhs),rhsMax =   1.58217005719052E-07  9.34721929418330E+00
 cg2d: Sum(rhs),rhsMax =   1.58150037066207E-07  9.35117742178592E+00
 cg2d: Sum(rhs),rhsMax =   1.58083715007251E-07  9.35508267492027E+00
 cg2d: Sum(rhs),rhsMax =   1.58018764295775E-07  9.35894192419005E+00
 cg2d: Sum(rhs),rhsMax =   1.57953891744000E-07  9.36276197821802E+00
 cg2d: Sum(rhs),rhsMax =   1.57889999741201E-07  9.36654938518496E+00
 cg2d: Sum(rhs),rhsMax =   1.57826519853188E-07  9.37031025051024E+00
 cg2d: Sum(rhs),rhsMax =   1.57763658137355E-07  9.37405007348543E+00
 cg2d: Sum(rhs),rhsMax =   1.57700689840112E-07  9.37777361441556E+00
 cg2d: Sum(rhs),rhsMax =   1.57638105235947E-07  9.38148479575939E+00
 cg2d: Sum(rhs),rhsMax =   1.57575861692294E-07  9.38518664193280E+00
 cg2d: Sum(rhs),rhsMax =   1.57513689202915E-07  9.38888125563880E+00
 cg2d: Sum(rhs),rhsMax =   1.57451452764690E-07  9.39256983098558E+00
 cg2d: Sum(rhs),rhsMax =   1.57389870025781E-07  9.39625269423587E+00
 cg2d: Sum(rhs),rhsMax =   1.57327839644950E-07  9.39992937198207E+00
 cg2d: Sum(rhs),rhsMax =   1.57266605071982E-07  9.40359867449008E+00
 cg2d: Sum(rhs),rhsMax =   1.57205221285039E-07  9.40725878524180E+00
 cg2d: Sum(rhs),rhsMax =   1.57144384616004E-07  9.41090734419932E+00
 cg2d: Sum(rhs),rhsMax =   1.57083441365558E-07  9.41454153230469E+00
 cg2d: Sum(rhs),rhsMax =   1.57022817859342E-07  9.41815815729745E+00
 cg2d: Sum(rhs),rhsMax =   1.56962848052444E-07  9.42175373864234E+00
 cg2d: Sum(rhs),rhsMax =   1.56903354309179E-07  9.42532458834380E+00
 EXTERNAL_FIELDS_LOAD, it=   3600150 : Reading new data, i0,i1=    3    4 (prev=    2    3 )
 DIC_FIELDS_LOAD, it=   3600150 : Reading new data, i0,i1=    3    4 (prev=    2    3 )
 cg2d: Sum(rhs),rhsMax =   1.56844386367538E-07  9.42886688985512E+00
 cg2d: Sum(rhs),rhsMax =   1.56786050808932E-07  9.43235379724390E+00
 cg2d: Sum(rhs),rhsMax =   1.56729463185457E-07  9.43576817325861E+00
 cg2d: Sum(rhs),rhsMax =   1.56674040852067E-07  9.43909408079935E+00
 cg2d: Sum(rhs),rhsMax =   1.56620934887997E-07  9.44231724780375E+00
 cg2d: Sum(rhs),rhsMax =   1.56569370801662E-07  9.44542544012602E+00
 cg2d: Sum(rhs),rhsMax =   1.56519689653578E-07  9.44840873884622E+00
 cg2d: Sum(rhs),rhsMax =   1.56472822254727E-07  9.45125971609770E+00
 cg2d: Sum(rhs),rhsMax =   1.56427617525878E-07  9.45397350936240E+00
 cg2d: Sum(rhs),rhsMax =   1.56384757588057E-07  9.45654781865251E+00
 cg2d: Sum(rhs),rhsMax =   1.56344832191735E-07  9.45898283383023E+00
 cg2d: Sum(rhs),rhsMax =   1.56306633414260E-07  9.46128109723642E+00
 cg2d: Sum(rhs),rhsMax =   1.56271084961190E-07  9.46344731860571E+00
 cg2d: Sum(rhs),rhsMax =   1.56237142334703E-07  9.46548815348608E+00
 cg2d: Sum(rhs),rhsMax =   1.56205267387577E-07  9.46741194668024E+00
 cg2d: Sum(rhs),rhsMax =   1.56175239851564E-07  9.46922844872215E+00
 cg2d: Sum(rhs),rhsMax =   1.56147137886364E-07  9.47094849760508E+00
 cg2d: Sum(rhs),rhsMax =   1.56120208316679E-07  9.47258374009707E+00
 cg2d: Sum(rhs),rhsMax =   1.56094635883619E-07  9.47414632630027E+00
 cg2d: Sum(rhs),rhsMax =   1.56069631884748E-07  9.47564860958206E+00
 cg2d: Sum(rhs),rhsMax =   1.56045885546519E-07  9.47710285869683E+00
 cg2d: Sum(rhs),rhsMax =   1.56022359476538E-07  9.47852099456481E+00
 cg2d: Sum(rhs),rhsMax =   1.55999494211301E-07  9.47991435650409E+00
 cg2d: Sum(rhs),rhsMax =   1.55977154747688E-07  9.48129350219173E+00
 cg2d: Sum(rhs),rhsMax =   1.55954339220443E-07  9.48266804354933E+00
 cg2d: Sum(rhs),rhsMax =   1.55931793699438E-07  9.48404652431056E+00
 cg2d: Sum(rhs),rhsMax =   1.55909042121039E-07  9.48543632689988E+00
 cg2d: Sum(rhs),rhsMax =   1.55885821584434E-07  9.48684360539340E+00
 cg2d: Sum(rhs),rhsMax =   1.55862714734667E-07  9.48827325855926E+00
 cg2d: Sum(rhs),rhsMax =   1.55838826287891E-07  9.48972893204264E+00
 cg2d: Sum(rhs),rhsMax =   1.55814433355772E-07  9.49121303094114E+00
 cg2d: Sum(rhs),rhsMax =   1.55789983580235E-07  9.49272675313569E+00
 cg2d: Sum(rhs),rhsMax =   1.55764709575124E-07  9.49427013125867E+00
 cg2d: Sum(rhs),rhsMax =   1.55739108720354E-07  9.49584209100241E+00
 cg2d: Sum(rhs),rhsMax =   1.55712911009687E-07  9.49744052944898E+00
 cg2d: Sum(rhs),rhsMax =   1.55686521452481E-07  9.49906241013908E+00
 cg2d: Sum(rhs),rhsMax =   1.55659733991342E-07  9.50070387273709E+00
 cg2d: Sum(rhs),rhsMax =   1.55632626785973E-07  9.50236035485632E+00
 cg2d: Sum(rhs),rhsMax =   1.55605491158894E-07  9.50402672184669E+00
 cg2d: Sum(rhs),rhsMax =   1.55578298688397E-07  9.50569741335586E+00
 cg2d: Sum(rhs),rhsMax =   1.55551077796190E-07  9.50736658442417E+00
 cg2d: Sum(rhs),rhsMax =   1.55523885325692E-07  9.50902827319058E+00
 cg2d: Sum(rhs),rhsMax =   1.55497183129683E-07  9.51067651838719E+00
 cg2d: Sum(rhs),rhsMax =   1.55470786467049E-07  9.51230545785063E+00
 cg2d: Sum(rhs),rhsMax =   1.55444702443219E-07  9.51390942883206E+00
 cg2d: Sum(rhs),rhsMax =   1.55418959479903E-07  9.51548308991335E+00
 cg2d: Sum(rhs),rhsMax =   1.55394317857827E-07  9.51702152785329E+00
 cg2d: Sum(rhs),rhsMax =   1.55369711762887E-07  9.51852032989996E+00
 cg2d: Sum(rhs),rhsMax =   1.55346036478932E-07  9.51997562350372E+00
 cg2d: Sum(rhs),rhsMax =   1.55323576223054E-07  9.52138408524577E+00
 cg2d: Sum(rhs),rhsMax =   1.55301350446280E-07  9.52274293287698E+00
 cg2d: Sum(rhs),rhsMax =   1.55280744706943E-07  9.52404992562530E+00
 cg2d: Sum(rhs),rhsMax =   1.55260174494742E-07  9.52530334700116E+00
 cg2d: Sum(rhs),rhsMax =   1.55241302479681E-07  9.52650198435958E+00
 cg2d: Sum(rhs),rhsMax =   1.55222487308038E-07  9.52764509643312E+00
 cg2d: Sum(rhs),rhsMax =   1.55204908480755E-07  9.52873236598035E+00
 cg2d: Sum(rhs),rhsMax =   1.55188487838132E-07  9.52976385013957E+00
 cg2d: Sum(rhs),rhsMax =   1.55173047744483E-07  9.53073993449898E+00
 cg2d: Sum(rhs),rhsMax =   1.55157991343913E-07  9.53166115429964E+00
 cg2d: Sum(rhs),rhsMax =   1.55143979441164E-07  9.53252820084563E+00
 EXTERNAL_FIELDS_LOAD, it=   3600210 : Reading new data, i0,i1=    4    5 (prev=    3    4 )
 DIC_FIELDS_LOAD, it=   3600210 : Reading new data, i0,i1=    4    5 (prev=    3    4 )
 cg2d: Sum(rhs),rhsMax =   1.55130905454826E-07  9.53334182315816E+00
 cg2d: Sum(rhs),rhsMax =   1.55118726752335E-07  9.53411543180110E+00
 cg2d: Sum(rhs),rhsMax =   1.55106960164630E-07  9.53485647400445E+00
 cg2d: Sum(rhs),rhsMax =   1.55095513321157E-07  9.53557144961540E+00
 cg2d: Sum(rhs),rhsMax =   1.55084286745932E-07  9.53626437508729E+00
 cg2d: Sum(rhs),rhsMax =   1.55073522023486E-07  9.53693893005197E+00
 cg2d: Sum(rhs),rhsMax =   1.55063091256125E-07  9.53759780592152E+00
 cg2d: Sum(rhs),rhsMax =   1.55052710226755E-07  9.53824281869492E+00
 cg2d: Sum(rhs),rhsMax =   1.55042712890463E-07  9.53887512481608E+00
 cg2d: Sum(rhs),rhsMax =   1.55032850557291E-07  9.53949557057448E+00
 cg2d: Sum(rhs),rhsMax =   1.55023101910956E-07  9.54010511361926E+00
 cg2d: Sum(rhs),rhsMax =   1.55013388791758E-07  9.54070462884507E+00
 cg2d: Sum(rhs),rhsMax =   1.55003839097390E-07  9.54129438984927E+00
 cg2d: Sum(rhs),rhsMax =   1.54994630463534E-07  9.54187344979344E+00
 cg2d: Sum(rhs),rhsMax =   1.54985528411089E-07  9.54243967644670E+00
 cg2d: Sum(rhs),rhsMax =   1.54976746102875E-07  9.54298998248434E+00
 cg2d: Sum(rhs),rhsMax =   1.54968013532653E-07  9.54352062450418E+00
 cg2d: Sum(rhs),rhsMax =   1.54960090981149E-07  9.54402746047673E+00
 cg2d: Sum(rhs),rhsMax =   1.54952580544432E-07  9.54450615312909E+00
 cg2d: Sum(rhs),rhsMax =   1.54945666963613E-07  9.54495237452022E+00
 cg2d: Sum(rhs),rhsMax =   1.54939364449547E-07  9.54536198175505E+00
 cg2d: Sum(rhs),rhsMax =   1.54933822216208E-07  9.54573114963606E+00
 cg2d: Sum(rhs),rhsMax =   1.54929239215562E-07  9.54605645054606E+00
 cg2d: Sum(rhs),rhsMax =   1.54924848061455E-07  9.54633494356549E+00
 cg2d: Sum(rhs),rhsMax =   1.54921565354016E-07  9.54656419952745E+00
 cg2d: Sum(rhs),rhsMax =   1.54919064243586E-07  9.54674232632412E+00
 cg2d: Sum(rhs),rhsMax =   1.54917373151875E-07  9.54686796832826E+00
 cg2d: Sum(rhs),rhsMax =   1.54916946826233E-07  9.54694028672918E+00
 cg2d: Sum(rhs),rhsMax =   1.54916875771960E-07  9.54695891768134E+00
 cg2d: Sum(rhs),rhsMax =   1.54917948691491E-07  9.54692390677095E+00
 cg2d: Sum(rhs),rhsMax =   1.54919810313459E-07  9.54683563674691E+00
 cg2d: Sum(rhs),rhsMax =   1.54922318529316E-07  9.54669476235123E+00
 cg2d: Sum(rhs),rhsMax =   1.54925821505003E-07  9.54650214870757E+00
 cg2d: Sum(rhs),rhsMax =   1.54930418716503E-07  9.54625877741125E+00
 cg2d: Sum(rhs),rhsMax =   1.54935570151338E-07  9.54596567399769E+00
 cg2d: Sum(rhs),rhsMax =   1.54941183438950E-07  9.54562385805509E+00
 cg2d: Sum(rhs),rhsMax =   1.54948246233744E-07  9.54523428743093E+00
 cg2d: Sum(rhs),rhsMax =   1.54955742459606E-07  9.54479779933890E+00
 cg2d: Sum(rhs),rhsMax =   1.54963636589400E-07  9.54431503841889E+00
 cg2d: Sum(rhs),rhsMax =   1.54972831012401E-07  9.54378641947086E+00
 cg2d: Sum(rhs),rhsMax =   1.54982579658736E-07  9.54321212532785E+00
 cg2d: Sum(rhs),rhsMax =   1.54992825684985E-07  9.54259212879030E+00
 cg2d: Sum(rhs),rhsMax =   1.55004265423031E-07  9.54192622626502E+00
 cg2d: Sum(rhs),rhsMax =   1.55016344649539E-07  9.54121407389056E+00
 cg2d: Sum(rhs),rhsMax =   1.55028779147415E-07  9.54045522146809E+00
 cg2d: Sum(rhs),rhsMax =   1.55042492622215E-07  9.53964914739889E+00
 cg2d: Sum(rhs),rhsMax =   1.55056454786973E-07  9.53879530565145E+00
 cg2d: Sum(rhs),rhsMax =   1.55071575136390E-07  9.53789320117186E+00
 cg2d: Sum(rhs),rhsMax =   1.55087299447132E-07  9.53694245990867E+00
 cg2d: Sum(rhs),rhsMax =   1.55103904830867E-07  9.53594290333437E+00
 cg2d: Sum(rhs),rhsMax =  -5.39536443966426E-07  9.53489492191043E+00
 cg2d: Sum(rhs),rhsMax =  -5.39598389082130E-07  9.53379824912823E+00
 cg2d: Sum(rhs),rhsMax =  -5.39663226106768E-07  9.53265374853984E+00
 cg2d: Sum(rhs),rhsMax =  -5.39730315551878E-07  9.53146211931872E+00
 cg2d: Sum(rhs),rhsMax =  -5.39801462196010E-07  9.53022424103388E+00
 cg2d: Sum(rhs),rhsMax =  -5.39873930449630E-07  9.52894122229836E+00
 cg2d: Sum(rhs),rhsMax =  -5.39948857181116E-07  9.52761441120608E+00
 cg2d: Sum(rhs),rhsMax =  -5.40026285023032E-07  9.52624536889606E+00
 cg2d: Sum(rhs),rhsMax =  -5.40106093183113E-07  9.52483584715062E+00
 cg2d: Sum(rhs),rhsMax =  -5.40188040076828E-07  9.52338775114226E+00
 cg2d: Sum(rhs),rhsMax =  -5.39536443966426E-07  9.53489492191043E+00
 cg2d: Sum(rhs),rhsMax =  -5.39598389082130E-07  9.53379824912823E+00
 cg2d: Sum(rhs),rhsMax =  -5.39663226106768E-07  9.53265374853984E+00
 cg2d: Sum(rhs),rhsMax =  -5.39730315551878E-07  9.53146211931872E+00
 cg2d: Sum(rhs),rhsMax =  -5.39801462196010E-07  9.53022424103388E+00
 cg2d: Sum(rhs),rhsMax =  -5.39873930449630E-07  9.52894122229836E+00
 cg2d: Sum(rhs),rhsMax =  -5.39948857181116E-07  9.52761441120608E+00
 cg2d: Sum(rhs),rhsMax =  -5.40026285023032E-07  9.52624536889606E+00
 cg2d: Sum(rhs),rhsMax =  -5.40106093183113E-07  9.52483584715062E+00
 cg2d: Sum(rhs),rhsMax =  -4.47538994308161E-07  9.52338750755253E+00
 cg2d: Sum(rhs),rhsMax =   4.47464287844923E-12  5.12124291529765E-02
 cg2d: Sum(rhs),rhsMax =  -5.39536443966426E-07  9.53489492191043E+00
 cg2d: Sum(rhs),rhsMax =  -5.39598389082130E-07  9.53379824912823E+00
 cg2d: Sum(rhs),rhsMax =  -5.39663226106768E-07  9.53265374853984E+00
 cg2d: Sum(rhs),rhsMax =  -5.39730315551878E-07  9.53146211931872E+00
 cg2d: Sum(rhs),rhsMax =  -5.39801462196010E-07  9.53022424103388E+00
 cg2d: Sum(rhs),rhsMax =  -5.39873930449630E-07  9.52894122229836E+00
 cg2d: Sum(rhs),rhsMax =  -5.39948857181116E-07  9.52761441120608E+00
 cg2d: Sum(rhs),rhsMax =  -5.40026285023032E-07  9.52624536889606E+00
 cg2d: Sum(rhs),rhsMax =  -3.75251715922786E-07  9.52483554277744E+00
 cg2d: Sum(rhs),rhsMax =   4.40758540776187E-12  5.17209412151477E-02
 cg2d: Sum(rhs),rhsMax =  -5.39536443966426E-07  9.53489492191043E+00
 cg2d: Sum(rhs),rhsMax =  -5.39598389082130E-07  9.53379824912823E+00
 cg2d: Sum(rhs),rhsMax =  -5.39663226106768E-07  9.53265374853984E+00
 cg2d: Sum(rhs),rhsMax =  -5.39730315551878E-07  9.53146211931872E+00
 cg2d: Sum(rhs),rhsMax =  -5.39801462196010E-07  9.53022424103388E+00
 cg2d: Sum(rhs),rhsMax =  -5.39873930449630E-07  9.52894122229836E+00
 cg2d: Sum(rhs),rhsMax =  -5.39948857181116E-07  9.52761441120608E+00
 cg2d: Sum(rhs),rhsMax =  -1.19611387106033E-06  9.52624510372953E+00
 cg2d: Sum(rhs),rhsMax =   4.46509496043745E-12  5.06521650437057E-02
 cg2d: Sum(rhs),rhsMax =  -5.39536443966426E-07  9.53489492191043E+00
 cg2d: Sum(rhs),rhsMax =  -5.39598389082130E-07  9.53379824912823E+00
 cg2d: Sum(rhs),rhsMax =  -5.39663226106768E-07  9.53265374853984E+00
 cg2d: Sum(rhs),rhsMax =  -5.39730315551878E-07  9.53146211931872E+00
 cg2d: Sum(rhs),rhsMax =  -5.39801462196010E-07  9.53022424103388E+00
 cg2d: Sum(rhs),rhsMax =  -5.39873930449630E-07  9.52894122229836E+00
 cg2d: Sum(rhs),rhsMax =  -9.05187391708751E-07  9.52761449536017E+00
 cg2d: Sum(rhs),rhsMax =   4.65472105304343E-12  4.92104999754256E-02
 cg2d: Sum(rhs),rhsMax =  -5.39536443966426E-07  9.53489492191043E+00
 cg2d: Sum(rhs),rhsMax =  -5.39598389082130E-07  9.53379824912823E+00
 cg2d: Sum(rhs),rhsMax =  -5.39663226106768E-07  9.53265374853984E+00
 cg2d: Sum(rhs),rhsMax =  -5.39730315551878E-07  9.53146211931872E+00
 cg2d: Sum(rhs),rhsMax =  -5.39801462196010E-07  9.53022424103388E+00
 cg2d: Sum(rhs),rhsMax =   1.90699864788257E-07  9.52894124891361E+00
 cg2d: Sum(rhs),rhsMax =   4.60342874930575E-12  4.83500733178676E-02
 cg2d: Sum(rhs),rhsMax =  -5.39536443966426E-07  9.53489492191043E+00
 cg2d: Sum(rhs),rhsMax =  -5.39598389082130E-07  9.53379824912823E+00
 cg2d: Sum(rhs),rhsMax =  -5.39663226106768E-07  9.53265374853984E+00
 cg2d: Sum(rhs),rhsMax =  -5.39730315551878E-07  9.53146211931872E+00
 cg2d: Sum(rhs),rhsMax =  -1.45571718235260E-07  9.53022442575676E+00
 cg2d: Sum(rhs),rhsMax =   4.59121629603487E-12  4.72105883835704E-02
 cg2d: Sum(rhs),rhsMax =  -5.39536443966426E-07  9.53489492191043E+00
 cg2d: Sum(rhs),rhsMax =  -5.39598389082130E-07  9.53379824912823E+00
 cg2d: Sum(rhs),rhsMax =  -5.39663226106768E-07  9.53265374853984E+00
 cg2d: Sum(rhs),rhsMax =   4.45579864560841E-07  9.53146230001937E+00
 cg2d: Sum(rhs),rhsMax =   4.51816362101454E-12  4.79635021001023E-02
 cg2d: Sum(rhs),rhsMax =  -5.39536443966426E-07  9.53489492191043E+00
 cg2d: Sum(rhs),rhsMax =  -5.39598389082130E-07  9.53379824912823E+00
 cg2d: Sum(rhs),rhsMax =   8.02599373628254E-08  9.53265394290781E+00
 cg2d: Sum(rhs),rhsMax =   4.40203429263875E-12  4.83405853627257E-02
 cg2d: Sum(rhs),rhsMax =  -5.39536443966426E-07  9.53489492191043E+00
 cg2d: Sum(rhs),rhsMax =  -1.01044985001408E-06  9.53379844900321E+00
 cg2d: Sum(rhs),rhsMax =   4.32587299314946E-12  4.84895918583317E-02
 cg2d: Sum(rhs),rhsMax =  -5.39536621602110E-07  9.53489492133029E+00
 cg2d: Sum(rhs),rhsMax =   4.27591295704133E-12  4.83833215390567E-02
 EXTERNAL_FIELDS_LOAD, it=   3600000 : Reading new data, i0,i1=   12    1 (prev=   12    5 )
 DIC_FIELDS_LOAD, it=   3600000 : Reading new data, i0,i1=   12    1 (prev=   12    0 )
 cg2d: Sum(rhs),rhsMax =   1.69318610687696E-07  8.73439699737069E+00
 cg2d: Sum(rhs),rhsMax =   1.69217777568065E-07  8.73957985685053E+00
 cg2d: Sum(rhs),rhsMax =   1.69116930237578E-07  8.74478996407667E+00
 cg2d: Sum(rhs),rhsMax =   1.69015713424869E-07  8.75002525197054E+00
 cg2d: Sum(rhs),rhsMax =   1.68913977915963E-07  8.75528319149979E+00
 cg2d: Sum(rhs),rhsMax =   1.68812391621032E-07  8.76056091159563E+00
 cg2d: Sum(rhs),rhsMax =   1.68710130310501E-07  8.76585531016545E+00
 cg2d: Sum(rhs),rhsMax =   1.68607783734842E-07  8.77116317961867E+00
 cg2d: Sum(rhs),rhsMax =   1.68505465580893E-07  8.77648131488675E+00
 cg2d: Sum(rhs),rhsMax =   1.68403296640918E-07  8.78180660701903E+00
 cg2d: Sum(rhs),rhsMax =   1.68301063752097E-07  8.78713610702002E+00
 cg2d: Sum(rhs),rhsMax =   1.68199015604387E-07  8.79246706727320E+00
 cg2d: Sum(rhs),rhsMax =   1.68096867980694E-07  8.79779694946195E+00
 cg2d: Sum(rhs),rhsMax =   1.67995075628369E-07  8.80312339652564E+00
 cg2d: Sum(rhs),rhsMax =   1.67893297486899E-07  8.80844419596376E+00
 cg2d: Sum(rhs),rhsMax =   1.67792002514489E-07  8.81375727000352E+00
 cg2d: Sum(rhs),rhsMax =   1.67690991759173E-07  8.81906074076855E+00
 cg2d: Sum(rhs),rhsMax =   1.67590364696935E-07  8.82435302858595E+00
 cg2d: Sum(rhs),rhsMax =   1.67489801583542E-07  8.82963296688162E+00
 cg2d: Sum(rhs),rhsMax =   1.67389771377202E-07  8.83489991268453E+00
 cg2d: Sum(rhs),rhsMax =   1.67290018282529E-07  8.84015381998810E+00
 cg2d: Sum(rhs),rhsMax =   1.67191025468583E-07  8.84539524558423E+00
 cg2d: Sum(rhs),rhsMax =   1.67091911862371E-07  8.85062527386172E+00
 cg2d: Sum(rhs),rhsMax =   1.66993110894964E-07  8.85584539161906E+00
 cg2d: Sum(rhs),rhsMax =   1.66895297581959E-07  8.86105731971219E+00
 cg2d: Sum(rhs),rhsMax =   1.66797214262715E-07  8.86626284368505E+00
 cg2d: Sum(rhs),rhsMax =   1.66699088310907E-07  8.87146368108963E+00
 cg2d: Sum(rhs),rhsMax =   1.66601175521919E-07  8.87666140941337E+00
 cg2d: Sum(rhs),rhsMax =   1.66503703269427E-07  8.88185744320308E+00
 cg2d: Sum(rhs),rhsMax =   1.66406401547192E-07  8.88705304968201E+00
 EXTERNAL_FIELDS_LOAD, it=   3600030 : Reading new data, i0,i1=    1    2 (prev=   12    1 )
 DIC_FIELDS_LOAD, it=   3600030 : Reading new data, i0,i1=    1    2 (prev=   12    1 )
 cg2d: Sum(rhs),rhsMax =   1.66308751659017E-07  8.89224939629417E+00
 cg2d: Sum(rhs),rhsMax =   1.66211989949261E-07  8.89742905273518E+00
 cg2d: Sum(rhs),rhsMax =   1.66115810884548E-07  8.90258194312370E+00
 cg2d: Sum(rhs),rhsMax =   1.66020008407486E-07  8.90769862985287E+00
 cg2d: Sum(rhs),rhsMax =   1.65925222006535E-07  8.91277064894441E+00
 cg2d: Sum(rhs),rhsMax =   1.65832325649262E-07  8.91779073567431E+00
 cg2d: Sum(rhs),rhsMax =   1.65739969304468E-07  8.92275296238945E+00
 cg2d: Sum(rhs),rhsMax =   1.65648664562923E-07  8.92765282308104E+00
 cg2d: Sum(rhs),rhsMax =   1.65559029596807E-07  8.93248727153984E+00
 cg2d: Sum(rhs),rhsMax =   1.65470908086718E-07  8.93725470683360E+00
 cg2d: Sum(rhs),rhsMax =   1.65383411854236E-07  8.94195490169141E+00
 cg2d: Sum(rhs),rhsMax =   1.65297855403423E-07  8.94658889014494E+00
 cg2d: Sum(rhs),rhsMax =   1.65213478453552E-07  8.95115882656284E+00
 cg2d: Sum(rhs),rhsMax =   1.65130131790647E-07  8.95566783046152E+00
 cg2d: Sum(rhs),rhsMax =   1.65047609357316E-07  8.96011984139981E+00
 cg2d: Sum(rhs),rhsMax =   1.64966841964542E-07  8.96451949805779E+00
 cg2d: Sum(rhs),rhsMax =   1.64886614584248E-07  8.96887204401274E+00
 cg2d: Sum(rhs),rhsMax =   1.64807353542074E-07  8.97318325974703E+00
 cg2d: Sum(rhs),rhsMax =   1.64728760410071E-07  8.97745941334167E+00
 cg2d: Sum(rhs),rhsMax =   1.64650550971146E-07  8.98170721084718E+00
 cg2d: Sum(rhs),rhsMax =   1.64573251026923E-07  8.98593374417503E+00
 cg2d: Sum(rhs),rhsMax =   1.64495830290434E-07  8.99014648706113E+00
 cg2d: Sum(rhs),rhsMax =   1.64419148518391E-07  8.99435313191228E+00
 cg2d: Sum(rhs),rhsMax =   1.64342466746348E-07  8.99856143301709E+00
 cg2d: Sum(rhs),rhsMax =   1.64265266278107E-07  9.00277891979376E+00
 cg2d: Sum(rhs),rhsMax =   1.64188094231577E-07  9.00701226475977E+00
 cg2d: Sum(rhs),rhsMax =   1.64110602440815E-07  9.01126800872608E+00
 cg2d: Sum(rhs),rhsMax =   1.64032670113556E-07  9.01555262481054E+00
 cg2d: Sum(rhs),rhsMax =   1.63954233300956E-07  9.01987189615712E+00
 cg2d: Sum(rhs),rhsMax =   1.63875164105320E-07  9.02423093235336E+00
 cg2d: Sum(rhs),rhsMax =   1.63795320418103E-07  9.02863410711437E+00
 cg2d: Sum(rhs),rhsMax =   1.63714346967936E-07  9.03308492807320E+00
 cg2d: Sum(rhs),rhsMax =   1.63633295358068E-07  9.03758589550099E+00
 cg2d: Sum(rhs),rhsMax =   1.63551085563540E-07  9.04213843256992E+00
 cg2d: Sum(rhs),rhsMax =   1.63468094172003E-07  9.04674278808053E+00
 cg2d: Sum(rhs),rhsMax =   1.63383937490380E-07  9.05139800068177E+00
 cg2d: Sum(rhs),rhsMax =   1.63299503697090E-07  9.05610191103194E+00
 cg2d: Sum(rhs),rhsMax =   1.63213783821448E-07  9.06085121060704E+00
 cg2d: Sum(rhs),rhsMax =   1.63127957364395E-07  9.06564152308058E+00
 cg2d: Sum(rhs),rhsMax =   1.63041192990931E-07  9.07046751690403E+00
 cg2d: Sum(rhs),rhsMax =   1.62954130189519E-07  9.07532304700718E+00
 cg2d: Sum(rhs),rhsMax =   1.62866854225285E-07  9.08020131376247E+00
 cg2d: Sum(rhs),rhsMax =   1.62779372203659E-07  9.08509502964907E+00
 cg2d: Sum(rhs),rhsMax =   1.62691954130878E-07  9.08999659239780E+00
 cg2d: Sum(rhs),rhsMax =   1.62604585796089E-07  9.09489817218861E+00
 cg2d: Sum(rhs),rhsMax =   1.62517501678394E-07  9.09979218349167E+00
 cg2d: Sum(rhs),rhsMax =   1.62430644934375E-07  9.10467101498796E+00
 cg2d: Sum(rhs),rhsMax =   1.62344292675698E-07  9.10952746457549E+00
 cg2d: Sum(rhs),rhsMax =   1.62258693592321E-07  9.11435477997425E+00
 cg2d: Sum(rhs),rhsMax =   1.62174011109073E-07  9.11914675387257E+00
 cg2d: Sum(rhs),rhsMax =   1.62089747846039E-07  9.12389782853965E+00
 cg2d: Sum(rhs),rhsMax =   1.62006273285442E-07  9.12860319621454E+00
 cg2d: Sum(rhs),rhsMax =   1.61924113228906E-07  9.13325897230795E+00
 cg2d: Sum(rhs),rhsMax =   1.61842727663952E-07  9.13786227569362E+00
 cg2d: Sum(rhs),rhsMax =   1.61762493178230E-07  9.14241138202085E+00
 cg2d: Sum(rhs),rhsMax =   1.61683040289518E-07  9.14690582567222E+00
 cg2d: Sum(rhs),rhsMax =   1.61604830850592E-07  9.15134644986131E+00
 cg2d: Sum(rhs),rhsMax =   1.61527417219531E-07  9.15573538211935E+00
 cg2d: Sum(rhs),rhsMax =   1.61451261249113E-07  9.16007592950651E+00
 cg2d: Sum(rhs),rhsMax =   1.61375858453994E-07  9.16437240256295E+00
 EXTERNAL_FIELDS_LOAD, it=   3600090 : Reading new data, i0,i1=    2    3 (prev=    1    2 )
 DIC_FIELDS_LOAD, it=   3600090 : Reading new data, i0,i1=    2    3 (prev=    1    2 )
 cg2d: Sum(rhs),rhsMax =   1.61301031198491E-07  9.16862988474514E+00
 cg2d: Sum(rhs),rhsMax =   1.61226488160082E-07  9.17287253571495E+00
 cg2d: Sum(rhs),rhsMax =   1.61152193811631E-07  9.17711746016568E+00
 cg2d: Sum(rhs),rhsMax =   1.61077544191812E-07  9.18138108877058E+00
 cg2d: Sum(rhs),rhsMax =   1.61002326137805E-07  9.18567861304476E+00
 cg2d: Sum(rhs),rhsMax =   1.60926205694523E-07  9.19002353014883E+00
 cg2d: Sum(rhs),rhsMax =   1.60849204178248E-07  9.19442728641192E+00
 cg2d: Sum(rhs),rhsMax =   1.60771165269580E-07  9.19889902438565E+00
 cg2d: Sum(rhs),rhsMax =   1.60691676853730E-07  9.20344543538162E+00
 cg2d: Sum(rhs),rhsMax =   1.60610625243862E-07  9.20807071616803E+00
 cg2d: Sum(rhs),rhsMax =   1.60529111781216E-07  9.21277660183589E+00
 cg2d: Sum(rhs),rhsMax =   1.60445615904337E-07  9.21756247694247E+00
 cg2d: Sum(rhs),rhsMax =   1.60361018686217E-07  9.22242554775714E+00
 cg2d: Sum(rhs),rhsMax =   1.60275249072583E-07  9.22736105179622E+00
 cg2d: Sum(rhs),rhsMax =   1.60188832865060E-07  9.23236249675336E+00
 cg2d: Sum(rhs),rhsMax =   1.60101009782920E-07  9.23742190581730E+00
 cg2d: Sum(rhs),rhsMax =   1.60012376682062E-07  9.24253005999046E+00
 cg2d: Sum(rhs),rhsMax =   1.59923374098980E-07  9.24767675774736E+00
 cg2d: Sum(rhs),rhsMax =   1.59833348334359E-07  9.25285099530738E+00
 cg2d: Sum(rhs),rhsMax =   1.59743947847346E-07  9.25804118480452E+00
 cg2d: Sum(rhs),rhsMax =   1.59654156561828E-07  9.26323537521839E+00
 cg2d: Sum(rhs),rhsMax =   1.59564649493404E-07  9.26842146305946E+00
 cg2d: Sum(rhs),rhsMax =   1.59475810335152E-07  9.27358734254206E+00
 cg2d: Sum(rhs),rhsMax =   1.59387511189379E-07  9.27872091717081E+00
 cg2d: Sum(rhs),rhsMax =   1.59299617052966E-07  9.28381136814303E+00
 cg2d: Sum(rhs),rhsMax =   1.59212980577195E-07  9.28884862895416E+00
 cg2d: Sum(rhs),rhsMax =   1.59127175436424E-07  9.29382345652557E+00
 cg2d: Sum(rhs),rhsMax =   1.59043672454118E-07  9.29872780684878E+00
 cg2d: Sum(rhs),rhsMax =   1.58960915541684E-07  9.30355510475018E+00
 cg2d: Sum(rhs),rhsMax =   1.58879650768995E-07  9.30830036704988E+00
 cg2d: Sum(rhs),rhsMax =   1.58800041560880E-07  9.31296021040285E+00
 cg2d: Sum(rhs),rhsMax =   1.58721938703366E-07  9.31753280098406E+00
 cg2d: Sum(rhs),rhsMax =   1.58645484304998E-07  9.32201775765958E+00
 cg2d: Sum(rhs),rhsMax =   1.58570394148683E-07  9.32641602969786E+00
 cg2d: Sum(rhs),rhsMax =   1.58496945346087E-07  9.33072978578710E+00
 cg2d: Sum(rhs),rhsMax =   1.58424988683237E-07  9.33496230239218E+00
 cg2d: Sum(rhs),rhsMax =   1.58354438895003E-07  9.33911784987238E+00
 cg2d: Sum(rhs),rhsMax =   1.58284855444890E-07  9.34320156451738E+00
 cg2d: Sum(rhs),rhsMax =   1.58217005719052E-07  9.34721929418330E+00
 cg2d: Sum(rhs),rhsMax =   1.58150037066207E-07  9.35117742178592E+00
 cg2d: Sum(rhs),rhsMax =   1.58083715007251E-07  9.35508267492027E+00
 cg2d: Sum(rhs),rhsMax =   1.58018764295775E-07  9.35894192419005E+00
 cg2d: Sum(rhs),rhsMax =   1.57953891744000E-07  9.36276197821802E+00
 cg2d: Sum(rhs),rhsMax =   1.57889999741201E-07  9.36654938518496E+00
 cg2d: Sum(rhs),rhsMax =   1.57826519853188E-07  9.37031025051024E+00
 cg2d: Sum(rhs),rhsMax =   1.57763658137355E-07  9.37405007348543E+00
 cg2d: Sum(rhs),rhsMax =   1.57700689840112E-07  9.37777361441556E+00
 cg2d: Sum(rhs),rhsMax =   1.57638105235947E-07  9.38148479575939E+00
 cg2d: Sum(rhs),rhsMax =   1.57575861692294E-07  9.38518664193280E+00
 cg2d: Sum(rhs),rhsMax =   1.57513689202915E-07  9.38888125563880E+00
 cg2d: Sum(rhs),rhsMax =   1.57451452764690E-07  9.39256983098558E+00
 cg2d: Sum(rhs),rhsMax =   1.57389870025781E-07  9.39625269423587E+00
 cg2d: Sum(rhs),rhsMax =   1.57327839644950E-07  9.39992937198207E+00
 cg2d: Sum(rhs),rhsMax =   1.57266605071982E-07  9.40359867449008E+00
 cg2d: Sum(rhs),rhsMax =   1.57205221285039E-07  9.40725878524180E+00
 cg2d: Sum(rhs),rhsMax =   1.57144384616004E-07  9.41090734419932E+00
 cg2d: Sum(rhs),rhsMax =   1.57083441365558E-07  9.41454153230469E+00
 cg2d: Sum(rhs),rhsMax =   1.57022817859342E-07  9.41815815729745E+00
 cg2d: Sum(rhs),rhsMax =   1.56962848052444E-07  9.42175373864234E+00
 cg2d: Sum(rhs),rhsMax =   1.56903354309179E-07  9.42532458834380E+00
 EXTERNAL_FIELDS_LOAD, it=   3600150 : Reading new data, i0,i1=    3    4 (prev=    2    3 )
 DIC_FIELDS_LOAD, it=   3600150 : Reading new data, i0,i1=    3    4 (prev=    2    3 )
 cg2d: Sum(rhs),rhsMax =   1.56844386367538E-07  9.42886688985512E+00
 cg2d: Sum(rhs),rhsMax =   1.56786050808932E-07  9.43235379724390E+00
 cg2d: Sum(rhs),rhsMax =   1.56729463185457E-07  9.43576817325861E+00
 cg2d: Sum(rhs),rhsMax =   1.56674040852067E-07  9.43909408079935E+00
 cg2d: Sum(rhs),rhsMax =   1.56620934887997E-07  9.44231724780375E+00
 cg2d: Sum(rhs),rhsMax =   1.56569370801662E-07  9.44542544012602E+00
 cg2d: Sum(rhs),rhsMax =   1.56519689653578E-07  9.44840873884622E+00
 cg2d: Sum(rhs),rhsMax =   1.56472822254727E-07  9.45125971609770E+00
 cg2d: Sum(rhs),rhsMax =   1.56427617525878E-07  9.45397350936240E+00
 cg2d: Sum(rhs),rhsMax =   1.56384757588057E-07  9.45654781865251E+00
 cg2d: Sum(rhs),rhsMax =   1.56344832191735E-07  9.45898283383023E+00
 cg2d: Sum(rhs),rhsMax =   1.56306633414260E-07  9.46128109723642E+00
 cg2d: Sum(rhs),rhsMax =   1.56271084961190E-07  9.46344731860571E+00
 cg2d: Sum(rhs),rhsMax =   1.56237142334703E-07  9.46548815348608E+00
 cg2d: Sum(rhs),rhsMax =   1.56205267387577E-07  9.46741194668024E+00
 cg2d: Sum(rhs),rhsMax =   1.56175239851564E-07  9.46922844872215E+00
 cg2d: Sum(rhs),rhsMax =   1.56147137886364E-07  9.47094849760508E+00
 cg2d: Sum(rhs),rhsMax =   1.56120208316679E-07  9.47258374009707E+00
 cg2d: Sum(rhs),rhsMax =   1.56094635883619E-07  9.47414632630027E+00
 cg2d: Sum(rhs),rhsMax =   1.56069631884748E-07  9.47564860958206E+00
 cg2d: Sum(rhs),rhsMax =   1.56045885546519E-07  9.47710285869683E+00
 cg2d: Sum(rhs),rhsMax =   1.56022359476538E-07  9.47852099456481E+00
 cg2d: Sum(rhs),rhsMax =   1.55999494211301E-07  9.47991435650409E+00
 cg2d: Sum(rhs),rhsMax =   1.55977154747688E-07  9.48129350219173E+00
 cg2d: Sum(rhs),rhsMax =   1.55954339220443E-07  9.48266804354933E+00
 cg2d: Sum(rhs),rhsMax =   1.55931793699438E-07  9.48404652431056E+00
 cg2d: Sum(rhs),rhsMax =   1.55909042121039E-07  9.48543632689988E+00
 cg2d: Sum(rhs),rhsMax =   1.55885821584434E-07  9.48684360539340E+00
 cg2d: Sum(rhs),rhsMax =   1.55862714734667E-07  9.48827325855926E+00
 cg2d: Sum(rhs),rhsMax =   1.55838826287891E-07  9.48972893204264E+00
 cg2d: Sum(rhs),rhsMax =   1.55814433355772E-07  9.49121303094114E+00
 cg2d: Sum(rhs),rhsMax =   1.55789983580235E-07  9.49272675313569E+00
 cg2d: Sum(rhs),rhsMax =   1.55764709575124E-07  9.49427013125867E+00
 cg2d: Sum(rhs),rhsMax =   1.55739108720354E-07  9.49584209100241E+00
 cg2d: Sum(rhs),rhsMax =   1.55712911009687E-07  9.49744052944898E+00
 cg2d: Sum(rhs),rhsMax =   1.55686521452481E-07  9.49906241013908E+00
 cg2d: Sum(rhs),rhsMax =   1.55659733991342E-07  9.50070387273709E+00
 cg2d: Sum(rhs),rhsMax =   1.55632626785973E-07  9.50236035485632E+00
 cg2d: Sum(rhs),rhsMax =   1.55605491158894E-07  9.50402672184669E+00
 cg2d: Sum(rhs),rhsMax =   1.55578298688397E-07  9.50569741335586E+00
 cg2d: Sum(rhs),rhsMax =   1.55551077796190E-07  9.50736658442417E+00
 cg2d: Sum(rhs),rhsMax =   1.55523885325692E-07  9.50902827319058E+00
 cg2d: Sum(rhs),rhsMax =   1.55497183129683E-07  9.51067651838719E+00
 cg2d: Sum(rhs),rhsMax =   1.55470786467049E-07  9.51230545785063E+00
 cg2d: Sum(rhs),rhsMax =   1.55444702443219E-07  9.51390942883206E+00
 cg2d: Sum(rhs),rhsMax =   1.55418959479903E-07  9.51548308991335E+00
 cg2d: Sum(rhs),rhsMax =   1.55394317857827E-07  9.51702152785329E+00
 cg2d: Sum(rhs),rhsMax =   1.55369711762887E-07  9.51852032989996E+00
 cg2d: Sum(rhs),rhsMax =   1.55346036478932E-07  9.51997562350372E+00
 cg2d: Sum(rhs),rhsMax =   1.55323576223054E-07  9.52138408524577E+00
 cg2d: Sum(rhs),rhsMax =   1.55301350446280E-07  9.52274293287698E+00
 cg2d: Sum(rhs),rhsMax =   1.55280744706943E-07  9.52404992562530E+00
 cg2d: Sum(rhs),rhsMax =   1.55260174494742E-07  9.52530334700116E+00
 cg2d: Sum(rhs),rhsMax =   1.55241302479681E-07  9.52650198435958E+00
 cg2d: Sum(rhs),rhsMax =   1.55222487308038E-07  9.52764509643312E+00
 cg2d: Sum(rhs),rhsMax =   1.55204908480755E-07  9.52873236598035E+00
 cg2d: Sum(rhs),rhsMax =   1.55188487838132E-07  9.52976385013957E+00
 cg2d: Sum(rhs),rhsMax =   1.55173047744483E-07  9.53073993449898E+00
 cg2d: Sum(rhs),rhsMax =   1.55157991343913E-07  9.53166115429964E+00
 cg2d: Sum(rhs),rhsMax =   1.55143979441164E-07  9.53252820084563E+00
 EXTERNAL_FIELDS_LOAD, it=   3600210 : Reading new data, i0,i1=    4    5 (prev=    3    4 )
 DIC_FIELDS_LOAD, it=   3600210 : Reading new data, i0,i1=    4    5 (prev=    3    4 )
 cg2d: Sum(rhs),rhsMax =   1.55130905454826E-07  9.53334182315816E+00
 cg2d: Sum(rhs),rhsMax =   1.55118726752335E-07  9.53411543180110E+00
 cg2d: Sum(rhs),rhsMax =   1.55106960164630E-07  9.53485647400445E+00
 cg2d: Sum(rhs),rhsMax =   1.55095513321157E-07  9.53557144961540E+00
 cg2d: Sum(rhs),rhsMax =   1.55084286745932E-07  9.53626437508729E+00
 cg2d: Sum(rhs),rhsMax =   1.55073522023486E-07  9.53693893005197E+00
 cg2d: Sum(rhs),rhsMax =   1.55063091256125E-07  9.53759780592152E+00
 cg2d: Sum(rhs),rhsMax =   1.55052710226755E-07  9.53824281869492E+00
 cg2d: Sum(rhs),rhsMax =   1.55042712890463E-07  9.53887512481608E+00
 cg2d: Sum(rhs),rhsMax =   1.55032850557291E-07  9.53949557057448E+00
 cg2d: Sum(rhs),rhsMax =   1.55023101910956E-07  9.54010511361926E+00
 cg2d: Sum(rhs),rhsMax =   1.55013388791758E-07  9.54070462884507E+00
 cg2d: Sum(rhs),rhsMax =   1.55003839097390E-07  9.54129438984927E+00
 cg2d: Sum(rhs),rhsMax =   1.54994630463534E-07  9.54187344979344E+00
 cg2d: Sum(rhs),rhsMax =   1.54985528411089E-07  9.54243967644670E+00
 cg2d: Sum(rhs),rhsMax =   1.54976746102875E-07  9.54298998248434E+00
 cg2d: Sum(rhs),rhsMax =   1.54968013532653E-07  9.54352062450418E+00
 cg2d: Sum(rhs),rhsMax =   1.54960090981149E-07  9.54402746047673E+00
 cg2d: Sum(rhs),rhsMax =   1.54952580544432E-07  9.54450615312909E+00
 cg2d: Sum(rhs),rhsMax =   1.54945666963613E-07  9.54495237452022E+00
 cg2d: Sum(rhs),rhsMax =   1.54939364449547E-07  9.54536198175505E+00
 cg2d: Sum(rhs),rhsMax =   1.54933822216208E-07  9.54573114963606E+00
 cg2d: Sum(rhs),rhsMax =   1.54929239215562E-07  9.54605645054606E+00
 cg2d: Sum(rhs),rhsMax =   1.54924848061455E-07  9.54633494356549E+00
 cg2d: Sum(rhs),rhsMax =   1.54921565354016E-07  9.54656419952745E+00
 cg2d: Sum(rhs),rhsMax =   1.54919064243586E-07  9.54674232632412E+00
 cg2d: Sum(rhs),rhsMax =   1.54917373151875E-07  9.54686796832826E+00
 cg2d: Sum(rhs),rhsMax =   1.54916946826233E-07  9.54694028672918E+00
 cg2d: Sum(rhs),rhsMax =   1.54916875771960E-07  9.54695891768134E+00
 cg2d: Sum(rhs),rhsMax =   1.54917948691491E-07  9.54692390677095E+00
 cg2d: Sum(rhs),rhsMax =   1.54919810313459E-07  9.54683563674691E+00
 cg2d: Sum(rhs),rhsMax =   1.54922318529316E-07  9.54669476235123E+00
 cg2d: Sum(rhs),rhsMax =   1.54925821505003E-07  9.54650214870757E+00
 cg2d: Sum(rhs),rhsMax =   1.54930418716503E-07  9.54625877741125E+00
 cg2d: Sum(rhs),rhsMax =   1.54935570151338E-07  9.54596567399769E+00
 cg2d: Sum(rhs),rhsMax =   1.54941183438950E-07  9.54562385805509E+00
 cg2d: Sum(rhs),rhsMax =   1.54948246233744E-07  9.54523428743093E+00
 cg2d: Sum(rhs),rhsMax =   1.54955742459606E-07  9.54479779933890E+00
 cg2d: Sum(rhs),rhsMax =   1.54963636589400E-07  9.54431503841889E+00
 cg2d: Sum(rhs),rhsMax =   1.54972831012401E-07  9.54378641947086E+00
 cg2d: Sum(rhs),rhsMax =   1.34714659338897E-06  9.54321193963820E+00
 cg2d: Sum(rhs),rhsMax =   1.34723446620910E-06  9.54259193085825E+00
 cg2d: Sum(rhs),rhsMax =   1.34732902523638E-06  9.54192600604743E+00
 cg2d: Sum(rhs),rhsMax =   1.34742990098857E-06  9.54121382935706E+00
 cg2d: Sum(rhs),rhsMax =   1.34753747005334E-06  9.54045495943758E+00
 cg2d: Sum(rhs),rhsMax =   1.34765160453298E-06  9.53964887810198E+00
 cg2d: Sum(rhs),rhsMax =   1.34777279470200E-06  9.53879503546611E+00
 cg2d: Sum(rhs),rhsMax =   1.34790035843935E-06  9.53789292705635E+00
 cg2d: Sum(rhs),rhsMax =   1.34803472207068E-06  9.53694216682682E+00
 cg2d: Sum(rhs),rhsMax =   1.34817651087360E-06  9.53594256440865E+00
 cg2d: Sum(rhs),rhsMax =   1.34714659338897E-06  9.54321193963820E+00
 cg2d: Sum(rhs),rhsMax =   1.34723446620910E-06  9.54259193085825E+00
 cg2d: Sum(rhs),rhsMax =   1.34732902523638E-06  9.54192600604743E+00
 cg2d: Sum(rhs),rhsMax =   1.34742990098857E-06  9.54121382935706E+00
 cg2d: Sum(rhs),rhsMax =   1.34753747005334E-06  9.54045495943758E+00
 cg2d: Sum(rhs),rhsMax =   1.34765160453298E-06  9.53964887810198E+00
 cg2d: Sum(rhs),rhsMax =   1.34777279470200E-06  9.53879503546611E+00
 cg2d: Sum(rhs),rhsMax =   1.34790035843935E-06  9.53789292705635E+00
 cg2d: Sum(rhs),rhsMax =   1.34803472207068E-06  9.53694216682682E+00
 cg2d: Sum(rhs),rhsMax =   1.94508093898094E-06  9.53594235195138E+00
 cg2d: Sum(rhs),rhsMax =   3.98125976630581E-12  5.12385943388057E-02
 cg2d: Sum(rhs),rhsMax =   1.34714659338897E-06  9.54321193963820E+00
 cg2d: Sum(rhs),rhsMax =   1.34723446620910E-06  9.54259193085825E+00
 cg2d: Sum(rhs),rhsMax =   1.34732902523638E-06  9.54192600604743E+00
 cg2d: Sum(rhs),rhsMax =   1.34742990098857E-06  9.54121382935706E+00
 cg2d: Sum(rhs),rhsMax =   1.34753747005334E-06  9.54045495943758E+00
 cg2d: Sum(rhs),rhsMax =   1.34765160453298E-06  9.53964887810198E+00
 cg2d: Sum(rhs),rhsMax =   1.34777279470200E-06  9.53879503546611E+00
 cg2d: Sum(rhs),rhsMax =   1.34790035843935E-06  9.53789292705635E+00
 cg2d: Sum(rhs),rhsMax =   9.25506810744992E-07  9.53694214587817E+00
 cg2d: Sum(rhs),rhsMax =   3.59823282281013E-12  5.48577658352891E-02
 cg2d: Sum(rhs),rhsMax =   1.34714659338897E-06  9.54321193963820E+00
 cg2d: Sum(rhs),rhsMax =   1.34723446620910E-06  9.54259193085825E+00
 cg2d: Sum(rhs),rhsMax =   1.34732902523638E-06  9.54192600604743E+00
 cg2d: Sum(rhs),rhsMax =   1.34742990098857E-06  9.54121382935706E+00
 cg2d: Sum(rhs),rhsMax =   1.34753747005334E-06  9.54045495943758E+00
 cg2d: Sum(rhs),rhsMax =   1.34765160453298E-06  9.53964887810198E+00
 cg2d: Sum(rhs),rhsMax =   1.34777279470200E-06  9.53879503546611E+00
 cg2d: Sum(rhs),rhsMax =   1.56621239000287E-06  9.53789322078610E+00
 cg2d: Sum(rhs),rhsMax =   3.54893892051678E-12  5.58736357247722E-02
 cg2d: Sum(rhs),rhsMax =   1.34714659338897E-06  9.54321193963820E+00
 cg2d: Sum(rhs),rhsMax =   1.34723446620910E-06  9.54259193085825E+00
 cg2d: Sum(rhs),rhsMax =   1.34732902523638E-06  9.54192600604743E+00
 cg2d: Sum(rhs),rhsMax =   1.34742990098857E-06  9.54121382935706E+00
 cg2d: Sum(rhs),rhsMax =   1.34753747005334E-06  9.54045495943758E+00
 cg2d: Sum(rhs),rhsMax =   1.34765160453298E-06  9.53964887810198E+00
 cg2d: Sum(rhs),rhsMax =   1.48284814827093E-06  9.53879466625860E+00
 cg2d: Sum(rhs),rhsMax =   3.54916096512170E-12  5.48242500835295E-02
 cg2d: Sum(rhs),rhsMax =   1.34714659338897E-06  9.54321193963820E+00
 cg2d: Sum(rhs),rhsMax =   1.34723446620910E-06  9.54259193085825E+00
 cg2d: Sum(rhs),rhsMax =   1.34732902523638E-06  9.54192600604743E+00
 cg2d: Sum(rhs),rhsMax =   1.34742990098857E-06  9.54121382935706E+00
 cg2d: Sum(rhs),rhsMax =   1.34753747005334E-06  9.54045495943758E+00
 cg2d: Sum(rhs),rhsMax =   1.89141683648586E-06  9.53964871535011E+00
 cg2d: Sum(rhs),rhsMax =   3.57980312060135E-12  5.30930168069423E-02
 cg2d: Sum(rhs),rhsMax =   1.34714659338897E-06  9.54321193963820E+00
 cg2d: Sum(rhs),rhsMax =   1.34723446620910E-06  9.54259193085825E+00
 cg2d: Sum(rhs),rhsMax =   1.34732902523638E-06  9.54192600604743E+00
 cg2d: Sum(rhs),rhsMax =   1.34742990098857E-06  9.54121382935706E+00
 cg2d: Sum(rhs),rhsMax =   1.34908972171388E-06  9.54045460706194E+00
 cg2d: Sum(rhs),rhsMax =   3.69926311805102E-12  5.14748693752019E-02
 cg2d: Sum(rhs),rhsMax =   1.34714659338897E-06  9.54321193963820E+00
 cg2d: Sum(rhs),rhsMax =   1.34723446620910E-06  9.54259193085825E+00
 cg2d: Sum(rhs),rhsMax =   1.34732902523638E-06  9.54192600604743E+00
 cg2d: Sum(rhs),rhsMax =   6.46351480781959E-07  9.54121391848535E+00
 cg2d: Sum(rhs),rhsMax =   3.76498832110883E-12  5.00531101227363E-02
 cg2d: Sum(rhs),rhsMax =   1.34714659338897E-06  9.54321193963820E+00
 cg2d: Sum(rhs),rhsMax =   1.34723446620910E-06  9.54259193085825E+00
 cg2d: Sum(rhs),rhsMax =   1.48172963321258E-06  9.54192598235549E+00
 cg2d: Sum(rhs),rhsMax =   3.56892293496003E-12  5.03104440387676E-02
 cg2d: Sum(rhs),rhsMax =   1.34714659338897E-06  9.54321193963820E+00
 cg2d: Sum(rhs),rhsMax =   1.57780819165509E-06  9.54259168102759E+00
 cg2d: Sum(rhs),rhsMax =   3.58868490479836E-12  5.05912333774774E-02
 cg2d: Sum(rhs),rhsMax =   1.34714652233470E-06  9.54321193970394E+00
 cg2d: Sum(rhs),rhsMax =   3.42903483385726E-12  5.05793393374442E-02
 EXTERNAL_FIELDS_LOAD, it=   3600000 : Reading new data, i0,i1=   12    1 (prev=   12    5 )
 DIC_FIELDS_LOAD, it=   3600000 : Reading new data, i0,i1=   12    1 (prev=   12    0 )
 cg2d: Sum(rhs),rhsMax =   1.69318610687696E-07  8.73439699737069E+00
 cg2d: Sum(rhs),rhsMax =   1.69217777568065E-07  8.73957985685053E+00
 cg2d: Sum(rhs),rhsMax =   1.69116930237578E-07  8.74478996407667E+00
 cg2d: Sum(rhs),rhsMax =   1.69015713424869E-07  8.75002525197054E+00
 cg2d: Sum(rhs),rhsMax =   1.68913977915963E-07  8.75528319149979E+00
 cg2d: Sum(rhs),rhsMax =   1.68812391621032E-07  8.76056091159563E+00
 cg2d: Sum(rhs),rhsMax =   1.68710130310501E-07  8.76585531016545E+00
 cg2d: Sum(rhs),rhsMax =   1.68607783734842E-07  8.77116317961867E+00
 cg2d: Sum(rhs),rhsMax =   1.68505465580893E-07  8.77648131488675E+00
 cg2d: Sum(rhs),rhsMax =   1.68403296640918E-07  8.78180660701903E+00
 cg2d: Sum(rhs),rhsMax =   1.68301063752097E-07  8.78713610702002E+00
 cg2d: Sum(rhs),rhsMax =   1.68199015604387E-07  8.79246706727320E+00
 cg2d: Sum(rhs),rhsMax =   1.68096867980694E-07  8.79779694946195E+00
 cg2d: Sum(rhs),rhsMax =   1.67995075628369E-07  8.80312339652564E+00
 cg2d: Sum(rhs),rhsMax =   1.67893297486899E-07  8.80844419596376E+00
 cg2d: Sum(rhs),rhsMax =   1.67792002514489E-07  8.81375727000352E+00
 cg2d: Sum(rhs),rhsMax =   1.67690991759173E-07  8.81906074076855E+00
 cg2d: Sum(rhs),rhsMax =   1.67590364696935E-07  8.82435302858595E+00
 cg2d: Sum(rhs),rhsMax =   1.67489801583542E-07  8.82963296688162E+00
 cg2d: Sum(rhs),rhsMax =   1.67389771377202E-07  8.83489991268453E+00
 cg2d: Sum(rhs),rhsMax =   1.67290018282529E-07  8.84015381998810E+00
 cg2d: Sum(rhs),rhsMax =   1.67191025468583E-07  8.84539524558423E+00
 cg2d: Sum(rhs),rhsMax =   1.67091911862371E-07  8.85062527386172E+00
 cg2d: Sum(rhs),rhsMax =   1.66993110894964E-07  8.85584539161906E+00
 cg2d: Sum(rhs),rhsMax =   1.66895297581959E-07  8.86105731971219E+00
 cg2d: Sum(rhs),rhsMax =   1.66797214262715E-07  8.86626284368505E+00
 cg2d: Sum(rhs),rhsMax =   1.66699088310907E-07  8.87146368108963E+00
 cg2d: Sum(rhs),rhsMax =   1.66601175521919E-07  8.87666140941337E+00
 cg2d: Sum(rhs),rhsMax =   1.66503703269427E-07  8.88185744320308E+00
 cg2d: Sum(rhs),rhsMax =   1.66406401547192E-07  8.88705304968201E+00
 EXTERNAL_FIELDS_LOAD, it=   3600030 : Reading new data, i0,i1=    1    2 (prev=   12    1 )
 DIC_FIELDS_LOAD, it=   3600030 : Reading new data, i0,i1=    1    2 (prev=   12    1 )
 cg2d: Sum(rhs),rhsMax =   1.66308751659017E-07  8.89224939629417E+00
 cg2d: Sum(rhs),rhsMax =   1.66211989949261E-07  8.89742905273518E+00
 cg2d: Sum(rhs),rhsMax =   1.66115810884548E-07  8.90258194312370E+00
 cg2d: Sum(rhs),rhsMax =   1.66020008407486E-07  8.90769862985287E+00
 cg2d: Sum(rhs),rhsMax =   1.65925222006535E-07  8.91277064894441E+00
 cg2d: Sum(rhs),rhsMax =   1.65832325649262E-07  8.91779073567431E+00
 cg2d: Sum(rhs),rhsMax =   1.65739969304468E-07  8.92275296238945E+00
 cg2d: Sum(rhs),rhsMax =   1.65648664562923E-07  8.92765282308104E+00
 cg2d: Sum(rhs),rhsMax =   1.65559029596807E-07  8.93248727153984E+00
 cg2d: Sum(rhs),rhsMax =   1.65470908086718E-07  8.93725470683360E+00
 cg2d: Sum(rhs),rhsMax =   1.65383411854236E-07  8.94195490169141E+00
 cg2d: Sum(rhs),rhsMax =   1.65297855403423E-07  8.94658889014494E+00
 cg2d: Sum(rhs),rhsMax =   1.65213478453552E-07  8.95115882656284E+00
 cg2d: Sum(rhs),rhsMax =   1.65130131790647E-07  8.95566783046152E+00
 cg2d: Sum(rhs),rhsMax =   1.65047609357316E-07  8.96011984139981E+00
 cg2d: Sum(rhs),rhsMax =   1.64966841964542E-07  8.96451949805779E+00
 cg2d: Sum(rhs),rhsMax =   1.64886614584248E-07  8.96887204401274E+00
 cg2d: Sum(rhs),rhsMax =   1.64807353542074E-07  8.97318325974703E+00
 cg2d: Sum(rhs),rhsMax =   1.64728760410071E-07  8.97745941334167E+00
 cg2d: Sum(rhs),rhsMax =   1.64650550971146E-07  8.98170721084718E+00
 cg2d: Sum(rhs),rhsMax =   1.64573251026923E-07  8.98593374417503E+00
 cg2d: Sum(rhs),rhsMax =   1.64495830290434E-07  8.99014648706113E+00
 cg2d: Sum(rhs),rhsMax =   1.64419148518391E-07  8.99435313191228E+00
 cg2d: Sum(rhs),rhsMax =   1.64342466746348E-07  8.99856143301709E+00
 cg2d: Sum(rhs),rhsMax =   1.64265266278107E-07  9.00277891979376E+00
 cg2d: Sum(rhs),rhsMax =   1.64188094231577E-07  9.00701226475977E+00
 cg2d: Sum(rhs),rhsMax =   1.64110602440815E-07  9.01126800872608E+00
 cg2d: Sum(rhs),rhsMax =   1.64032670113556E-07  9.01555262481054E+00
 cg2d: Sum(rhs),rhsMax =   1.63954233300956E-07  9.01987189615712E+00
 cg2d: Sum(rhs),rhsMax =   1.63875164105320E-07  9.02423093235336E+00
 cg2d: Sum(rhs),rhsMax =   1.63795320418103E-07  9.02863410711437E+00
 cg2d: Sum(rhs),rhsMax =   1.63714346967936E-07  9.03308492807320E+00
 cg2d: Sum(rhs),rhsMax =   1.63633295358068E-07  9.03758589550099E+00
 cg2d: Sum(rhs),rhsMax =   1.63551085563540E-07  9.04213843256992E+00
 cg2d: Sum(rhs),rhsMax =   1.63468094172003E-07  9.04674278808053E+00
 cg2d: Sum(rhs),rhsMax =   1.63383937490380E-07  9.05139800068177E+00
 cg2d: Sum(rhs),rhsMax =   1.63299503697090E-07  9.05610191103194E+00
 cg2d: Sum(rhs),rhsMax =   1.63213783821448E-07  9.06085121060704E+00
 cg2d: Sum(rhs),rhsMax =   1.63127957364395E-07  9.06564152308058E+00
 cg2d: Sum(rhs),rhsMax =   1.63041192990931E-07  9.07046751690403E+00
 cg2d: Sum(rhs),rhsMax =   1.62954130189519E-07  9.07532304700718E+00
 cg2d: Sum(rhs),rhsMax =   1.62866854225285E-07  9.08020131376247E+00
 cg2d: Sum(rhs),rhsMax =   1.62779372203659E-07  9.08509502964907E+00
 cg2d: Sum(rhs),rhsMax =   1.62691954130878E-07  9.08999659239780E+00
 cg2d: Sum(rhs),rhsMax =   1.62604585796089E-07  9.09489817218861E+00
 cg2d: Sum(rhs),rhsMax =   1.62517501678394E-07  9.09979218349167E+00
 cg2d: Sum(rhs),rhsMax =   1.62430644934375E-07  9.10467101498796E+00
 cg2d: Sum(rhs),rhsMax =   1.62344292675698E-07  9.10952746457549E+00
 cg2d: Sum(rhs),rhsMax =   1.62258693592321E-07  9.11435477997425E+00
 cg2d: Sum(rhs),rhsMax =   1.62174011109073E-07  9.11914675387257E+00
 cg2d: Sum(rhs),rhsMax =   1.62089747846039E-07  9.12389782853965E+00
 cg2d: Sum(rhs),rhsMax =   1.62006273285442E-07  9.12860319621454E+00
 cg2d: Sum(rhs),rhsMax =   1.61924113228906E-07  9.13325897230795E+00
 cg2d: Sum(rhs),rhsMax =   1.61842727663952E-07  9.13786227569362E+00
 cg2d: Sum(rhs),rhsMax =   1.61762493178230E-07  9.14241138202085E+00
 cg2d: Sum(rhs),rhsMax =   1.61683040289518E-07  9.14690582567222E+00
 cg2d: Sum(rhs),rhsMax =   1.61604830850592E-07  9.15134644986131E+00
 cg2d: Sum(rhs),rhsMax =   1.61527417219531E-07  9.15573538211935E+00
 cg2d: Sum(rhs),rhsMax =   1.61451261249113E-07  9.16007592950651E+00
 cg2d: Sum(rhs),rhsMax =   1.61375858453994E-07  9.16437240256295E+00
 EXTERNAL_FIELDS_LOAD, it=   3600090 : Reading new data, i0,i1=    2    3 (prev=    1    2 )
 DIC_FIELDS_LOAD, it=   3600090 : Reading new data, i0,i1=    2    3 (prev=    1    2 )
 cg2d: Sum(rhs),rhsMax =   1.61301031198491E-07  9.16862988474514E+00
 cg2d: Sum(rhs),rhsMax =   1.61226488160082E-07  9.17287253571495E+00
 cg2d: Sum(rhs),rhsMax =   1.61152193811631E-07  9.17711746016568E+00
 cg2d: Sum(rhs),rhsMax =   1.61077544191812E-07  9.18138108877058E+00
 cg2d: Sum(rhs),rhsMax =   1.61002326137805E-07  9.18567861304476E+00
 cg2d: Sum(rhs),rhsMax =   1.60926205694523E-07  9.19002353014883E+00
 cg2d: Sum(rhs),rhsMax =   1.60849204178248E-07  9.19442728641192E+00
 cg2d: Sum(rhs),rhsMax =   1.60771165269580E-07  9.19889902438565E+00
 cg2d: Sum(rhs),rhsMax =   1.60691676853730E-07  9.20344543538162E+00
 cg2d: Sum(rhs),rhsMax =   1.60610625243862E-07  9.20807071616803E+00
 cg2d: Sum(rhs),rhsMax =   1.60529111781216E-07  9.21277660183589E+00
 cg2d: Sum(rhs),rhsMax =   1.60445615904337E-07  9.21756247694247E+00
 cg2d: Sum(rhs),rhsMax =   1.60361018686217E-07  9.22242554775714E+00
 cg2d: Sum(rhs),rhsMax =   1.60275249072583E-07  9.22736105179622E+00
 cg2d: Sum(rhs),rhsMax =   1.60188832865060E-07  9.23236249675336E+00
 cg2d: Sum(rhs),rhsMax =   1.60101009782920E-07  9.23742190581730E+00
 cg2d: Sum(rhs),rhsMax =   1.60012376682062E-07  9.24253005999046E+00
 cg2d: Sum(rhs),rhsMax =   1.59923374098980E-07  9.24767675774736E+00
 cg2d: Sum(rhs),rhsMax =   1.59833348334359E-07  9.25285099530738E+00
 cg2d: Sum(rhs),rhsMax =   1.59743947847346E-07  9.25804118480452E+00
 cg2d: Sum(rhs),rhsMax =   1.59654156561828E-07  9.26323537521839E+00
 cg2d: Sum(rhs),rhsMax =   1.59564649493404E-07  9.26842146305946E+00
 cg2d: Sum(rhs),rhsMax =   1.59475810335152E-07  9.27358734254206E+00
 cg2d: Sum(rhs),rhsMax =   1.59387511189379E-07  9.27872091717081E+00
 cg2d: Sum(rhs),rhsMax =   1.59299617052966E-07  9.28381136814303E+00
 cg2d: Sum(rhs),rhsMax =   1.59212980577195E-07  9.28884862895416E+00
 cg2d: Sum(rhs),rhsMax =   1.59127175436424E-07  9.29382345652557E+00
 cg2d: Sum(rhs),rhsMax =   1.59043672454118E-07  9.29872780684878E+00
 cg2d: Sum(rhs),rhsMax =   1.58960915541684E-07  9.30355510475018E+00
 cg2d: Sum(rhs),rhsMax =   1.58879650768995E-07  9.30830036704988E+00
 cg2d: Sum(rhs),rhsMax =   1.58800041560880E-07  9.31296021040285E+00
 cg2d: Sum(rhs),rhsMax =   1.58721938703366E-07  9.31753280098406E+00
 cg2d: Sum(rhs),rhsMax =   1.58645484304998E-07  9.32201775765958E+00
 cg2d: Sum(rhs),rhsMax =   1.58570394148683E-07  9.32641602969786E+00
 cg2d: Sum(rhs),rhsMax =   1.58496945346087E-07  9.33072978578710E+00
 cg2d: Sum(rhs),rhsMax =   1.58424988683237E-07  9.33496230239218E+00
 cg2d: Sum(rhs),rhsMax =   1.58354438895003E-07  9.33911784987238E+00
 cg2d: Sum(rhs),rhsMax =   1.58284855444890E-07  9.34320156451738E+00
 cg2d: Sum(rhs),rhsMax =   1.58217005719052E-07  9.34721929418330E+00
 cg2d: Sum(rhs),rhsMax =   1.58150037066207E-07  9.35117742178592E+00
 cg2d: Sum(rhs),rhsMax =   1.58083715007251E-07  9.35508267492027E+00
 cg2d: Sum(rhs),rhsMax =   1.58018764295775E-07  9.35894192419005E+00
 cg2d: Sum(rhs),rhsMax =   1.57953891744000E-07  9.36276197821802E+00
 cg2d: Sum(rhs),rhsMax =   1.57889999741201E-07  9.36654938518496E+00
 cg2d: Sum(rhs),rhsMax =   1.57826519853188E-07  9.37031025051024E+00
 cg2d: Sum(rhs),rhsMax =   1.57763658137355E-07  9.37405007348543E+00
 cg2d: Sum(rhs),rhsMax =   1.57700689840112E-07  9.37777361441556E+00
 cg2d: Sum(rhs),rhsMax =   1.57638105235947E-07  9.38148479575939E+00
 cg2d: Sum(rhs),rhsMax =   1.57575861692294E-07  9.38518664193280E+00
 cg2d: Sum(rhs),rhsMax =   1.57513689202915E-07  9.38888125563880E+00
 cg2d: Sum(rhs),rhsMax =   1.57451452764690E-07  9.39256983098558E+00
 cg2d: Sum(rhs),rhsMax =   1.57389870025781E-07  9.39625269423587E+00
 cg2d: Sum(rhs),rhsMax =   1.57327839644950E-07  9.39992937198207E+00
 cg2d: Sum(rhs),rhsMax =   1.57266605071982E-07  9.40359867449008E+00
 cg2d: Sum(rhs),rhsMax =   1.57205221285039E-07  9.40725878524180E+00
 cg2d: Sum(rhs),rhsMax =   1.57144384616004E-07  9.41090734419932E+00
 cg2d: Sum(rhs),rhsMax =   1.57083441365558E-07  9.41454153230469E+00
 cg2d: Sum(rhs),rhsMax =   1.57022817859342E-07  9.41815815729745E+00
 cg2d: Sum(rhs),rhsMax =   1.56962848052444E-07  9.42175373864234E+00
 cg2d: Sum(rhs),rhsMax =   1.56903354309179E-07  9.42532458834380E+00
 EXTERNAL_FIELDS_LOAD, it=   3600150 : Reading new data, i0,i1=    3    4 (prev=    2    3 )
 DIC_FIELDS_LOAD, it=   3600150 : Reading new data, i0,i1=    3    4 (prev=    2    3 )
 cg2d: Sum(rhs),rhsMax =   1.56844386367538E-07  9.42886688985512E+00
 cg2d: Sum(rhs),rhsMax =   1.56786050808932E-07  9.43235379724390E+00
 cg2d: Sum(rhs),rhsMax =   1.56729463185457E-07  9.43576817325861E+00
 cg2d: Sum(rhs),rhsMax =   1.56674040852067E-07  9.43909408079935E+00
 cg2d: Sum(rhs),rhsMax =   1.56620934887997E-07  9.44231724780375E+00
 cg2d: Sum(rhs),rhsMax =   1.56569370801662E-07  9.44542544012602E+00
 cg2d: Sum(rhs),rhsMax =   1.56519689653578E-07  9.44840873884622E+00
 cg2d: Sum(rhs),rhsMax =   1.56472822254727E-07  9.45125971609770E+00
 cg2d: Sum(rhs),rhsMax =   1.56427617525878E-07  9.45397350936240E+00
 cg2d: Sum(rhs),rhsMax =   1.56384757588057E-07  9.45654781865251E+00
 cg2d: Sum(rhs),rhsMax =   1.56344832191735E-07  9.45898283383023E+00
 cg2d: Sum(rhs),rhsMax =   1.56306633414260E-07  9.46128109723642E+00
 cg2d: Sum(rhs),rhsMax =   1.56271084961190E-07  9.46344731860571E+00
 cg2d: Sum(rhs),rhsMax =   1.56237142334703E-07  9.46548815348608E+00
 cg2d: Sum(rhs),rhsMax =   1.56205267387577E-07  9.46741194668024E+00
 cg2d: Sum(rhs),rhsMax =   1.56175239851564E-07  9.46922844872215E+00
 cg2d: Sum(rhs),rhsMax =   1.56147137886364E-07  9.47094849760508E+00
 cg2d: Sum(rhs),rhsMax =   1.56120208316679E-07  9.47258374009707E+00
 cg2d: Sum(rhs),rhsMax =   1.56094635883619E-07  9.47414632630027E+00
 cg2d: Sum(rhs),rhsMax =   1.56069631884748E-07  9.47564860958206E+00
 cg2d: Sum(rhs),rhsMax =   1.56045885546519E-07  9.47710285869683E+00
 cg2d: Sum(rhs),rhsMax =   1.56022359476538E-07  9.47852099456481E+00
 cg2d: Sum(rhs),rhsMax =   1.55999494211301E-07  9.47991435650409E+00
 cg2d: Sum(rhs),rhsMax =   1.55977154747688E-07  9.48129350219173E+00
 cg2d: Sum(rhs),rhsMax =   1.55954339220443E-07  9.48266804354933E+00
 cg2d: Sum(rhs),rhsMax =   1.55931793699438E-07  9.48404652431056E+00
 cg2d: Sum(rhs),rhsMax =   1.55909042121039E-07  9.48543632689988E+00
 cg2d: Sum(rhs),rhsMax =   1.55885821584434E-07  9.48684360539340E+00
 cg2d: Sum(rhs),rhsMax =   1.55862714734667E-07  9.48827325855926E+00
 cg2d: Sum(rhs),rhsMax =   1.55838826287891E-07  9.48972893204264E+00
 cg2d: Sum(rhs),rhsMax =   1.55814433355772E-07  9.49121303094114E+00
 cg2d: Sum(rhs),rhsMax =   1.55789983580235E-07  9.49272675313569E+00
 cg2d: Sum(rhs),rhsMax =   1.55764709575124E-07  9.49427013125867E+00
 cg2d: Sum(rhs),rhsMax =   1.55739108720354E-07  9.49584209100241E+00
 cg2d: Sum(rhs),rhsMax =   1.55712911009687E-07  9.49744052944898E+00
 cg2d: Sum(rhs),rhsMax =   1.55686521452481E-07  9.49906241013908E+00
 cg2d: Sum(rhs),rhsMax =   1.55659733991342E-07  9.50070387273709E+00
 cg2d: Sum(rhs),rhsMax =   1.55632626785973E-07  9.50236035485632E+00
 cg2d: Sum(rhs),rhsMax =   1.55605491158894E-07  9.50402672184669E+00
 cg2d: Sum(rhs),rhsMax =   1.55578298688397E-07  9.50569741335586E+00
 cg2d: Sum(rhs),rhsMax =   1.55551077796190E-07  9.50736658442417E+00
 cg2d: Sum(rhs),rhsMax =   1.55523885325692E-07  9.50902827319058E+00
 cg2d: Sum(rhs),rhsMax =   1.55497183129683E-07  9.51067651838719E+00
 cg2d: Sum(rhs),rhsMax =   1.55470786467049E-07  9.51230545785063E+00
 cg2d: Sum(rhs),rhsMax =   1.55444702443219E-07  9.51390942883206E+00
 cg2d: Sum(rhs),rhsMax =   1.55418959479903E-07  9.51548308991335E+00
 cg2d: Sum(rhs),rhsMax =   1.55394317857827E-07  9.51702152785329E+00
 cg2d: Sum(rhs),rhsMax =   1.55369711762887E-07  9.51852032989996E+00
 cg2d: Sum(rhs),rhsMax =   1.55346036478932E-07  9.51997562350372E+00
 cg2d: Sum(rhs),rhsMax =   1.55323576223054E-07  9.52138408524577E+00
 cg2d: Sum(rhs),rhsMax =   1.55301350446280E-07  9.52274293287698E+00
 cg2d: Sum(rhs),rhsMax =   1.55280744706943E-07  9.52404992562530E+00
 cg2d: Sum(rhs),rhsMax =   1.55260174494742E-07  9.52530334700116E+00
 cg2d: Sum(rhs),rhsMax =   1.55241302479681E-07  9.52650198435958E+00
 cg2d: Sum(rhs),rhsMax =   1.55222487308038E-07  9.52764509643312E+00
 cg2d: Sum(rhs),rhsMax =   1.55204908480755E-07  9.52873236598035E+00
 cg2d: Sum(rhs),rhsMax =   1.55188487838132E-07  9.52976385013957E+00
 cg2d: Sum(rhs),rhsMax =   1.55173047744483E-07  9.53073993449898E+00
 cg2d: Sum(rhs),rhsMax =   1.55157991343913E-07  9.53166115429964E+00
 cg2d: Sum(rhs),rhsMax =   1.55143979441164E-07  9.53252820084563E+00
 EXTERNAL_FIELDS_LOAD, it=   3600210 : Reading new data, i0,i1=    4    5 (prev=    3    4 )
 DIC_FIELDS_LOAD, it=   3600210 : Reading new data, i0,i1=    4    5 (prev=    3    4 )
 cg2d: Sum(rhs),rhsMax =   1.55130905454826E-07  9.53334182315816E+00
 cg2d: Sum(rhs),rhsMax =   1.55118726752335E-07  9.53411543180110E+00
 cg2d: Sum(rhs),rhsMax =   1.55106960164630E-07  9.53485647400445E+00
 cg2d: Sum(rhs),rhsMax =   1.55095513321157E-07  9.53557144961540E+00
 cg2d: Sum(rhs),rhsMax =   1.55084286745932E-07  9.53626437508729E+00
 cg2d: Sum(rhs),rhsMax =   1.55073522023486E-07  9.53693893005197E+00
 cg2d: Sum(rhs),rhsMax =   1.55063091256125E-07  9.53759780592152E+00
 cg2d: Sum(rhs),rhsMax =   1.55052710226755E-07  9.53824281869492E+00
 cg2d: Sum(rhs),rhsMax =   1.55042712890463E-07  9.53887512481608E+00
 cg2d: Sum(rhs),rhsMax =   1.55032850557291E-07  9.53949557057448E+00
 cg2d: Sum(rhs),rhsMax =   1.55023101910956E-07  9.54010511361926E+00
 cg2d: Sum(rhs),rhsMax =   1.55013388791758E-07  9.54070462884507E+00
 cg2d: Sum(rhs),rhsMax =   1.55003839097390E-07  9.54129438984927E+00
 cg2d: Sum(rhs),rhsMax =   1.54994630463534E-07  9.54187344979344E+00
 cg2d: Sum(rhs),rhsMax =   1.54985528411089E-07  9.54243967644670E+00
 cg2d: Sum(rhs),rhsMax =   1.54976746102875E-07  9.54298998248434E+00
 cg2d: Sum(rhs),rhsMax =   1.54968013532653E-07  9.54352062450418E+00
 cg2d: Sum(rhs),rhsMax =   1.54960090981149E-07  9.54402746047673E+00
 cg2d: Sum(rhs),rhsMax =   1.54952580544432E-07  9.54450615312909E+00
 cg2d: Sum(rhs),rhsMax =   1.54945666963613E-07  9.54495237452022E+00
 cg2d: Sum(rhs),rhsMax =   1.54939364449547E-07  9.54536198175505E+00
 cg2d: Sum(rhs),rhsMax =   1.54933822216208E-07  9.54573114963606E+00
 cg2d: Sum(rhs),rhsMax =   1.54929239215562E-07  9.54605645054606E+00
 cg2d: Sum(rhs),rhsMax =   1.54924848061455E-07  9.54633494356549E+00
 cg2d: Sum(rhs),rhsMax =   1.54921565354016E-07  9.54656419952745E+00
 cg2d: Sum(rhs),rhsMax =   1.54919064243586E-07  9.54674232632412E+00
 cg2d: Sum(rhs),rhsMax =   1.54917373151875E-07  9.54686796832826E+00
 cg2d: Sum(rhs),rhsMax =   1.54916946826233E-07  9.54694028672918E+00
 cg2d: Sum(rhs),rhsMax =   1.54916875771960E-07  9.54695891768134E+00
 cg2d: Sum(rhs),rhsMax =   1.54917948691491E-07  9.54692390677095E+00
 cg2d: Sum(rhs),rhsMax =  -3.34596037987467E-07  9.54683531946739E+00
 cg2d: Sum(rhs),rhsMax =  -3.34600585460976E-07  9.54669447140381E+00
 cg2d: Sum(rhs),rhsMax =  -3.34606852447905E-07  9.54650189077732E+00
 cg2d: Sum(rhs),rhsMax =  -3.34615116059922E-07  9.54625854609337E+00
 cg2d: Sum(rhs),rhsMax =  -3.34624836284547E-07  9.54596545840966E+00
 cg2d: Sum(rhs),rhsMax =  -3.34636304444302E-07  9.54562365253170E+00
 cg2d: Sum(rhs),rhsMax =  -3.34649854494273E-07  9.54523409708975E+00
 cg2d: Sum(rhs),rhsMax =  -3.34664775891724E-07  9.54479764049856E+00
 cg2d: Sum(rhs),rhsMax =  -3.34681303115758E-07  9.54431493527118E+00
 cg2d: Sum(rhs),rhsMax =  -3.34699173265562E-07  9.54378639922488E+00
 cg2d: Sum(rhs),rhsMax =  -3.34596037987467E-07  9.54683531946739E+00
 cg2d: Sum(rhs),rhsMax =  -3.34600585460976E-07  9.54669447140381E+00
 cg2d: Sum(rhs),rhsMax =  -3.34606852447905E-07  9.54650189077732E+00
 cg2d: Sum(rhs),rhsMax =  -3.34615116059922E-07  9.54625854609337E+00
 cg2d: Sum(rhs),rhsMax =  -3.34624836284547E-07  9.54596545840966E+00
 cg2d: Sum(rhs),rhsMax =  -3.34636304444302E-07  9.54562365253170E+00
 cg2d: Sum(rhs),rhsMax =  -3.34649854494273E-07  9.54523409708975E+00
 cg2d: Sum(rhs),rhsMax =  -3.34664775891724E-07  9.54479764049856E+00
 cg2d: Sum(rhs),rhsMax =  -3.34681303115758E-07  9.54431493527118E+00
 cg2d: Sum(rhs),rhsMax =   2.58641399852877E-07  9.54378622439972E+00
 cg2d: Sum(rhs),rhsMax =   3.46700446129944E-12  5.03266023304193E-02
 cg2d: Sum(rhs),rhsMax =  -3.34596037987467E-07  9.54683531946739E+00
 cg2d: Sum(rhs),rhsMax =  -3.34600585460976E-07  9.54669447140381E+00
 cg2d: Sum(rhs),rhsMax =  -3.34606852447905E-07  9.54650189077732E+00
 cg2d: Sum(rhs),rhsMax =  -3.34615116059922E-07  9.54625854609337E+00
 cg2d: Sum(rhs),rhsMax =  -3.34624836284547E-07  9.54596545840966E+00
 cg2d: Sum(rhs),rhsMax =  -3.34636304444302E-07  9.54562365253170E+00
 cg2d: Sum(rhs),rhsMax =  -3.34649854494273E-07  9.54523409708975E+00
 cg2d: Sum(rhs),rhsMax =  -3.34664775891724E-07  9.54479764049856E+00
 cg2d: Sum(rhs),rhsMax =  -1.36400615247112E-08  9.54431459315219E+00
 cg2d: Sum(rhs),rhsMax =   3.49320572468059E-12  4.85799894308100E-02
 cg2d: Sum(rhs),rhsMax =  -3.34596037987467E-07  9.54683531946739E+00
 cg2d: Sum(rhs),rhsMax =  -3.34600585460976E-07  9.54669447140381E+00
 cg2d: Sum(rhs),rhsMax =  -3.34606852447905E-07  9.54650189077732E+00
 cg2d: Sum(rhs),rhsMax =  -3.34615116059922E-07  9.54625854609337E+00
 cg2d: Sum(rhs),rhsMax =  -3.34624836284547E-07  9.54596545840966E+00
 cg2d: Sum(rhs),rhsMax =  -3.34636304444302E-07  9.54562365253170E+00
 cg2d: Sum(rhs),rhsMax =  -3.34649854494273E-07  9.54523409708975E+00
 cg2d: Sum(rhs),rhsMax =  -3.02462360934896E-07  9.54479734823493E+00
 cg2d: Sum(rhs),rhsMax =   3.17634807345257E-12  5.27342036160312E-02
 cg2d: Sum(rhs),rhsMax =  -3.34596037987467E-07  9.54683531946739E+00
 cg2d: Sum(rhs),rhsMax =  -3.34600585460976E-07  9.54669447140381E+00
 cg2d: Sum(rhs),rhsMax =  -3.34606852447905E-07  9.54650189077732E+00
 cg2d: Sum(rhs),rhsMax =  -3.34615116059922E-07  9.54625854609337E+00
 cg2d: Sum(rhs),rhsMax =  -3.34624836284547E-07  9.54596545840966E+00
 cg2d: Sum(rhs),rhsMax =  -3.34636304444302E-07  9.54562365253170E+00
 cg2d: Sum(rhs),rhsMax =  -4.83674043039173E-07  9.54523388801082E+00
 cg2d: Sum(rhs),rhsMax =   3.07109893071811E-12  5.41776381641999E-02
 cg2d: Sum(rhs),rhsMax =  -3.34596037987467E-07  9.54683531946739E+00
 cg2d: Sum(rhs),rhsMax =  -3.34600585460976E-07  9.54669447140381E+00
 cg2d: Sum(rhs),rhsMax =  -3.34606852447905E-07  9.54650189077732E+00
 cg2d: Sum(rhs),rhsMax =  -3.34615116059922E-07  9.54625854609337E+00
 cg2d: Sum(rhs),rhsMax =  -3.34624836284547E-07  9.54596545840966E+00
 cg2d: Sum(rhs),rhsMax =   4.96096525637313E-07  9.54562357275154E+00
 cg2d: Sum(rhs),rhsMax =   3.02335934065923E-12  5.38324792181317E-02
 cg2d: Sum(rhs),rhsMax =  -3.34596037987467E-07  9.54683531946739E+00
 cg2d: Sum(rhs),rhsMax =  -3.34600585460976E-07  9.54669447140381E+00
 cg2d: Sum(rhs),rhsMax =  -3.34606852447905E-07  9.54650189077732E+00
 cg2d: Sum(rhs),rhsMax =  -3.34615116059922E-07  9.54625854609337E+00
 cg2d: Sum(rhs),rhsMax =  -1.60587767084053E-07  9.54596569327686E+00
 cg2d: Sum(rhs),rhsMax =   3.02535774210355E-12  5.32309617319122E-02
 cg2d: Sum(rhs),rhsMax =  -3.34596037987467E-07  9.54683531946739E+00
 cg2d: Sum(rhs),rhsMax =  -3.34600585460976E-07  9.54669447140381E+00
 cg2d: Sum(rhs),rhsMax =  -3.34606852447905E-07  9.54650189077732E+00
 cg2d: Sum(rhs),rhsMax =  -6.93473282353807E-07  9.54625871038162E+00
 cg2d: Sum(rhs),rhsMax =   2.93720603394831E-12  5.21817944018459E-02
 cg2d: Sum(rhs),rhsMax =  -3.34596037987467E-07  9.54683531946739E+00
 cg2d: Sum(rhs),rhsMax =  -3.34600585460976E-07  9.54669447140381E+00
 cg2d: Sum(rhs),rhsMax =   2.11703465424762E-07  9.54650179827315E+00
 cg2d: Sum(rhs),rhsMax =   2.96784818942797E-12  5.15845497890192E-02
 cg2d: Sum(rhs),rhsMax =  -3.34596037987467E-07  9.54683531946739E+00
 cg2d: Sum(rhs),rhsMax =  -1.09570717654606E-06  9.54669483438049E+00
 cg2d: Sum(rhs),rhsMax =   2.90811819070314E-12  5.11866555496301E-02
 cg2d: Sum(rhs),rhsMax =  -3.34595931406056E-07  9.54683531903473E+00
 cg2d: Sum(rhs),rhsMax =   2.89901436190121E-12  5.05504432616638E-02
 EXTERNAL_FIELDS_LOAD, it=   3600000 : Reading new data, i0,i1=   12    1 (prev=   12    5 )
 DIC_FIELDS_LOAD, it=   3600000 : Reading new data, i0,i1=   12    1 (prev=   12    0 )
 cg2d: Sum(rhs),rhsMax =   1.69318610687696E-07  8.73439699737069E+00
 cg2d: Sum(rhs),rhsMax =   1.69217777568065E-07  8.73957985685053E+00
 cg2d: Sum(rhs),rhsMax =   1.69116930237578E-07  8.74478996407667E+00
 cg2d: Sum(rhs),rhsMax =   1.69015713424869E-07  8.75002525197054E+00
 cg2d: Sum(rhs),rhsMax =   1.68913977915963E-07  8.75528319149979E+00
 cg2d: Sum(rhs),rhsMax =   1.68812391621032E-07  8.76056091159563E+00
 cg2d: Sum(rhs),rhsMax =   1.68710130310501E-07  8.76585531016545E+00
 cg2d: Sum(rhs),rhsMax =   1.68607783734842E-07  8.77116317961867E+00
 cg2d: Sum(rhs),rhsMax =   1.68505465580893E-07  8.77648131488675E+00
 cg2d: Sum(rhs),rhsMax =   1.68403296640918E-07  8.78180660701903E+00
 cg2d: Sum(rhs),rhsMax =   1.68301063752097E-07  8.78713610702002E+00
 cg2d: Sum(rhs),rhsMax =   1.68199015604387E-07  8.79246706727320E+00
 cg2d: Sum(rhs),rhsMax =   1.68096867980694E-07  8.79779694946195E+00
 cg2d: Sum(rhs),rhsMax =   1.67995075628369E-07  8.80312339652564E+00
 cg2d: Sum(rhs),rhsMax =   1.67893297486899E-07  8.80844419596376E+00
 cg2d: Sum(rhs),rhsMax =   1.67792002514489E-07  8.81375727000352E+00
 cg2d: Sum(rhs),rhsMax =   1.67690991759173E-07  8.81906074076855E+00
 cg2d: Sum(rhs),rhsMax =   1.67590364696935E-07  8.82435302858595E+00
 cg2d: Sum(rhs),rhsMax =   1.67489801583542E-07  8.82963296688162E+00
 cg2d: Sum(rhs),rhsMax =   1.67389771377202E-07  8.83489991268453E+00
 cg2d: Sum(rhs),rhsMax =   1.67290018282529E-07  8.84015381998810E+00
 cg2d: Sum(rhs),rhsMax =   1.67191025468583E-07  8.84539524558423E+00
 cg2d: Sum(rhs),rhsMax =   1.67091911862371E-07  8.85062527386172E+00
 cg2d: Sum(rhs),rhsMax =   1.66993110894964E-07  8.85584539161906E+00
 cg2d: Sum(rhs),rhsMax =   1.66895297581959E-07  8.86105731971219E+00
 cg2d: Sum(rhs),rhsMax =   1.66797214262715E-07  8.86626284368505E+00
 cg2d: Sum(rhs),rhsMax =   1.66699088310907E-07  8.87146368108963E+00
 cg2d: Sum(rhs),rhsMax =   1.66601175521919E-07  8.87666140941337E+00
 cg2d: Sum(rhs),rhsMax =   1.66503703269427E-07  8.88185744320308E+00
 cg2d: Sum(rhs),rhsMax =   1.66406401547192E-07  8.88705304968201E+00
 EXTERNAL_FIELDS_LOAD, it=   3600030 : Reading new data, i0,i1=    1    2 (prev=   12    1 )
 DIC_FIELDS_LOAD, it=   3600030 : Reading new data, i0,i1=    1    2 (prev=   12    1 )
 cg2d: Sum(rhs),rhsMax =   1.66308751659017E-07  8.89224939629417E+00
 cg2d: Sum(rhs),rhsMax =   1.66211989949261E-07  8.89742905273518E+00
 cg2d: Sum(rhs),rhsMax =   1.66115810884548E-07  8.90258194312370E+00
 cg2d: Sum(rhs),rhsMax =   1.66020008407486E-07  8.90769862985287E+00
 cg2d: Sum(rhs),rhsMax =   1.65925222006535E-07  8.91277064894441E+00
 cg2d: Sum(rhs),rhsMax =   1.65832325649262E-07  8.91779073567431E+00
 cg2d: Sum(rhs),rhsMax =   1.65739969304468E-07  8.92275296238945E+00
 cg2d: Sum(rhs),rhsMax =   1.65648664562923E-07  8.92765282308104E+00
 cg2d: Sum(rhs),rhsMax =   1.65559029596807E-07  8.93248727153984E+00
 cg2d: Sum(rhs),rhsMax =   1.65470908086718E-07  8.93725470683360E+00
 cg2d: Sum(rhs),rhsMax =   1.65383411854236E-07  8.94195490169141E+00
 cg2d: Sum(rhs),rhsMax =   1.65297855403423E-07  8.94658889014494E+00
 cg2d: Sum(rhs),rhsMax =   1.65213478453552E-07  8.95115882656284E+00
 cg2d: Sum(rhs),rhsMax =   1.65130131790647E-07  8.95566783046152E+00
 cg2d: Sum(rhs),rhsMax =   1.65047609357316E-07  8.96011984139981E+00
 cg2d: Sum(rhs),rhsMax =   1.64966841964542E-07  8.96451949805779E+00
 cg2d: Sum(rhs),rhsMax =   1.64886614584248E-07  8.96887204401274E+00
 cg2d: Sum(rhs),rhsMax =   1.64807353542074E-07  8.97318325974703E+00
 cg2d: Sum(rhs),rhsMax =   1.64728760410071E-07  8.97745941334167E+00
 cg2d: Sum(rhs),rhsMax =   1.64650550971146E-07  8.98170721084718E+00
 cg2d: Sum(rhs),rhsMax =   1.64573251026923E-07  8.98593374417503E+00
 cg2d: Sum(rhs),rhsMax =   1.64495830290434E-07  8.99014648706113E+00
 cg2d: Sum(rhs),rhsMax =   1.64419148518391E-07  8.99435313191228E+00
 cg2d: Sum(rhs),rhsMax =   1.64342466746348E-07  8.99856143301709E+00
 cg2d: Sum(rhs),rhsMax =   1.64265266278107E-07  9.00277891979376E+00
 cg2d: Sum(rhs),rhsMax =   1.64188094231577E-07  9.00701226475977E+00
 cg2d: Sum(rhs),rhsMax =   1.64110602440815E-07  9.01126800872608E+00
 cg2d: Sum(rhs),rhsMax =   1.64032670113556E-07  9.01555262481054E+00
 cg2d: Sum(rhs),rhsMax =   1.63954233300956E-07  9.01987189615712E+00
 cg2d: Sum(rhs),rhsMax =   1.63875164105320E-07  9.02423093235336E+00
 cg2d: Sum(rhs),rhsMax =   1.63795320418103E-07  9.02863410711437E+00
 cg2d: Sum(rhs),rhsMax =   1.63714346967936E-07  9.03308492807320E+00
 cg2d: Sum(rhs),rhsMax =   1.63633295358068E-07  9.03758589550099E+00
 cg2d: Sum(rhs),rhsMax =   1.63551085563540E-07  9.04213843256992E+00
 cg2d: Sum(rhs),rhsMax =   1.63468094172003E-07  9.04674278808053E+00
 cg2d: Sum(rhs),rhsMax =   1.63383937490380E-07  9.05139800068177E+00
 cg2d: Sum(rhs),rhsMax =   1.63299503697090E-07  9.05610191103194E+00
 cg2d: Sum(rhs),rhsMax =   1.63213783821448E-07  9.06085121060704E+00
 cg2d: Sum(rhs),rhsMax =   1.63127957364395E-07  9.06564152308058E+00
 cg2d: Sum(rhs),rhsMax =   1.63041192990931E-07  9.07046751690403E+00
 cg2d: Sum(rhs),rhsMax =   1.62954130189519E-07  9.07532304700718E+00
 cg2d: Sum(rhs),rhsMax =   1.62866854225285E-07  9.08020131376247E+00
 cg2d: Sum(rhs),rhsMax =   1.62779372203659E-07  9.08509502964907E+00
 cg2d: Sum(rhs),rhsMax =   1.62691954130878E-07  9.08999659239780E+00
 cg2d: Sum(rhs),rhsMax =   1.62604585796089E-07  9.09489817218861E+00
 cg2d: Sum(rhs),rhsMax =   1.62517501678394E-07  9.09979218349167E+00
 cg2d: Sum(rhs),rhsMax =   1.62430644934375E-07  9.10467101498796E+00
 cg2d: Sum(rhs),rhsMax =   1.62344292675698E-07  9.10952746457549E+00
 cg2d: Sum(rhs),rhsMax =   1.62258693592321E-07  9.11435477997425E+00
 cg2d: Sum(rhs),rhsMax =   1.62174011109073E-07  9.11914675387257E+00
 cg2d: Sum(rhs),rhsMax =   1.62089747846039E-07  9.12389782853965E+00
 cg2d: Sum(rhs),rhsMax =   1.62006273285442E-07  9.12860319621454E+00
 cg2d: Sum(rhs),rhsMax =   1.61924113228906E-07  9.13325897230795E+00
 cg2d: Sum(rhs),rhsMax =   1.61842727663952E-07  9.13786227569362E+00
 cg2d: Sum(rhs),rhsMax =   1.61762493178230E-07  9.14241138202085E+00
 cg2d: Sum(rhs),rhsMax =   1.61683040289518E-07  9.14690582567222E+00
 cg2d: Sum(rhs),rhsMax =   1.61604830850592E-07  9.15134644986131E+00
 cg2d: Sum(rhs),rhsMax =   1.61527417219531E-07  9.15573538211935E+00
 cg2d: Sum(rhs),rhsMax =   1.61451261249113E-07  9.16007592950651E+00
 cg2d: Sum(rhs),rhsMax =   1.61375858453994E-07  9.16437240256295E+00
 EXTERNAL_FIELDS_LOAD, it=   3600090 : Reading new data, i0,i1=    2    3 (prev=    1    2 )
 DIC_FIELDS_LOAD, it=   3600090 : Reading new data, i0,i1=    2    3 (prev=    1    2 )
 cg2d: Sum(rhs),rhsMax =   1.61301031198491E-07  9.16862988474514E+00
 cg2d: Sum(rhs),rhsMax =   1.61226488160082E-07  9.17287253571495E+00
 cg2d: Sum(rhs),rhsMax =   1.61152193811631E-07  9.17711746016568E+00
 cg2d: Sum(rhs),rhsMax =   1.61077544191812E-07  9.18138108877058E+00
 cg2d: Sum(rhs),rhsMax =   1.61002326137805E-07  9.18567861304476E+00
 cg2d: Sum(rhs),rhsMax =   1.60926205694523E-07  9.19002353014883E+00
 cg2d: Sum(rhs),rhsMax =   1.60849204178248E-07  9.19442728641192E+00
 cg2d: Sum(rhs),rhsMax =   1.60771165269580E-07  9.19889902438565E+00
 cg2d: Sum(rhs),rhsMax =   1.60691676853730E-07  9.20344543538162E+00
 cg2d: Sum(rhs),rhsMax =   1.60610625243862E-07  9.20807071616803E+00
 cg2d: Sum(rhs),rhsMax =   1.60529111781216E-07  9.21277660183589E+00
 cg2d: Sum(rhs),rhsMax =   1.60445615904337E-07  9.21756247694247E+00
 cg2d: Sum(rhs),rhsMax =   1.60361018686217E-07  9.22242554775714E+00
 cg2d: Sum(rhs),rhsMax =   1.60275249072583E-07  9.22736105179622E+00
 cg2d: Sum(rhs),rhsMax =   1.60188832865060E-07  9.23236249675336E+00
 cg2d: Sum(rhs),rhsMax =   1.60101009782920E-07  9.23742190581730E+00
 cg2d: Sum(rhs),rhsMax =   1.60012376682062E-07  9.24253005999046E+00
 cg2d: Sum(rhs),rhsMax =   1.59923374098980E-07  9.24767675774736E+00
 cg2d: Sum(rhs),rhsMax =   1.59833348334359E-07  9.25285099530738E+00
 cg2d: Sum(rhs),rhsMax =   1.59743947847346E-07  9.25804118480452E+00
 cg2d: Sum(rhs),rhsMax =   1.59654156561828E-07  9.26323537521839E+00
 cg2d: Sum(rhs),rhsMax =   1.59564649493404E-07  9.26842146305946E+00
 cg2d: Sum(rhs),rhsMax =   1.59475810335152E-07  9.27358734254206E+00
 cg2d: Sum(rhs),rhsMax =   1.59387511189379E-07  9.27872091717081E+00
 cg2d: Sum(rhs),rhsMax =   1.59299617052966E-07  9.28381136814303E+00
 cg2d: Sum(rhs),rhsMax =   1.59212980577195E-07  9.28884862895416E+00
 cg2d: Sum(rhs),rhsMax =   1.59127175436424E-07  9.29382345652557E+00
 cg2d: Sum(rhs),rhsMax =   1.59043672454118E-07  9.29872780684878E+00
 cg2d: Sum(rhs),rhsMax =   1.58960915541684E-07  9.30355510475018E+00
 cg2d: Sum(rhs),rhsMax =   1.58879650768995E-07  9.30830036704988E+00
 cg2d: Sum(rhs),rhsMax =   1.58800041560880E-07  9.31296021040285E+00
 cg2d: Sum(rhs),rhsMax =   1.58721938703366E-07  9.31753280098406E+00
 cg2d: Sum(rhs),rhsMax =   1.58645484304998E-07  9.32201775765958E+00
 cg2d: Sum(rhs),rhsMax =   1.58570394148683E-07  9.32641602969786E+00
 cg2d: Sum(rhs),rhsMax =   1.58496945346087E-07  9.33072978578710E+00
 cg2d: Sum(rhs),rhsMax =   1.58424988683237E-07  9.33496230239218E+00
 cg2d: Sum(rhs),rhsMax =   1.58354438895003E-07  9.33911784987238E+00
 cg2d: Sum(rhs),rhsMax =   1.58284855444890E-07  9.34320156451738E+00
 cg2d: Sum(rhs),rhsMax =   1.58217005719052E-07  9.34721929418330E+00
 cg2d: Sum(rhs),rhsMax =   1.58150037066207E-07  9.35117742178592E+00
 cg2d: Sum(rhs),rhsMax =   1.58083715007251E-07  9.35508267492027E+00
 cg2d: Sum(rhs),rhsMax =   1.58018764295775E-07  9.35894192419005E+00
 cg2d: Sum(rhs),rhsMax =   1.57953891744000E-07  9.36276197821802E+00
 cg2d: Sum(rhs),rhsMax =   1.57889999741201E-07  9.36654938518496E+00
 cg2d: Sum(rhs),rhsMax =   1.57826519853188E-07  9.37031025051024E+00
 cg2d: Sum(rhs),rhsMax =   1.57763658137355E-07  9.37405007348543E+00
 cg2d: Sum(rhs),rhsMax =   1.57700689840112E-07  9.37777361441556E+00
 cg2d: Sum(rhs),rhsMax =   1.57638105235947E-07  9.38148479575939E+00
 cg2d: Sum(rhs),rhsMax =   1.57575861692294E-07  9.38518664193280E+00
 cg2d: Sum(rhs),rhsMax =   1.57513689202915E-07  9.38888125563880E+00
 cg2d: Sum(rhs),rhsMax =   1.57451452764690E-07  9.39256983098558E+00
 cg2d: Sum(rhs),rhsMax =   1.57389870025781E-07  9.39625269423587E+00
 cg2d: Sum(rhs),rhsMax =   1.57327839644950E-07  9.39992937198207E+00
 cg2d: Sum(rhs),rhsMax =   1.57266605071982E-07  9.40359867449008E+00
 cg2d: Sum(rhs),rhsMax =   1.57205221285039E-07  9.40725878524180E+00
 cg2d: Sum(rhs),rhsMax =   1.57144384616004E-07  9.41090734419932E+00
 cg2d: Sum(rhs),rhsMax =   1.57083441365558E-07  9.41454153230469E+00
 cg2d: Sum(rhs),rhsMax =   1.57022817859342E-07  9.41815815729745E+00
 cg2d: Sum(rhs),rhsMax =   1.56962848052444E-07  9.42175373864234E+00
 cg2d: Sum(rhs),rhsMax =   1.56903354309179E-07  9.42532458834380E+00
 EXTERNAL_FIELDS_LOAD, it=   3600150 : Reading new data, i0,i1=    3    4 (prev=    2    3 )
 DIC_FIELDS_LOAD, it=   3600150 : Reading new data, i0,i1=    3    4 (prev=    2    3 )
 cg2d: Sum(rhs),rhsMax =   1.56844386367538E-07  9.42886688985512E+00
 cg2d: Sum(rhs),rhsMax =   1.56786050808932E-07  9.43235379724390E+00
 cg2d: Sum(rhs),rhsMax =   1.56729463185457E-07  9.43576817325861E+00
 cg2d: Sum(rhs),rhsMax =   1.56674040852067E-07  9.43909408079935E+00
 cg2d: Sum(rhs),rhsMax =   1.56620934887997E-07  9.44231724780375E+00
 cg2d: Sum(rhs),rhsMax =   1.56569370801662E-07  9.44542544012602E+00
 cg2d: Sum(rhs),rhsMax =   1.56519689653578E-07  9.44840873884622E+00
 cg2d: Sum(rhs),rhsMax =   1.56472822254727E-07  9.45125971609770E+00
 cg2d: Sum(rhs),rhsMax =   1.56427617525878E-07  9.45397350936240E+00
 cg2d: Sum(rhs),rhsMax =   1.56384757588057E-07  9.45654781865251E+00
 cg2d: Sum(rhs),rhsMax =   1.56344832191735E-07  9.45898283383023E+00
 cg2d: Sum(rhs),rhsMax =   1.56306633414260E-07  9.46128109723642E+00
 cg2d: Sum(rhs),rhsMax =   1.56271084961190E-07  9.46344731860571E+00
 cg2d: Sum(rhs),rhsMax =   1.56237142334703E-07  9.46548815348608E+00
 cg2d: Sum(rhs),rhsMax =   1.56205267387577E-07  9.46741194668024E+00
 cg2d: Sum(rhs),rhsMax =   1.56175239851564E-07  9.46922844872215E+00
 cg2d: Sum(rhs),rhsMax =   1.56147137886364E-07  9.47094849760508E+00
 cg2d: Sum(rhs),rhsMax =   1.56120208316679E-07  9.47258374009707E+00
 cg2d: Sum(rhs),rhsMax =   1.56094635883619E-07  9.47414632630027E+00
 cg2d: Sum(rhs),rhsMax =   1.56069631884748E-07  9.47564860958206E+00
 cg2d: Sum(rhs),rhsMax =   1.56045885546519E-07  9.47710285869683E+00
 cg2d: Sum(rhs),rhsMax =   1.56022359476538E-07  9.47852099456481E+00
 cg2d: Sum(rhs),rhsMax =   1.55999494211301E-07  9.47991435650409E+00
 cg2d: Sum(rhs),rhsMax =   1.55977154747688E-07  9.48129350219173E+00
 cg2d: Sum(rhs),rhsMax =   1.55954339220443E-07  9.48266804354933E+00
 cg2d: Sum(rhs),rhsMax =   1.55931793699438E-07  9.48404652431056E+00
 cg2d: Sum(rhs),rhsMax =   1.55909042121039E-07  9.48543632689988E+00
 cg2d: Sum(rhs),rhsMax =   1.55885821584434E-07  9.48684360539340E+00
 cg2d: Sum(rhs),rhsMax =   1.55862714734667E-07  9.48827325855926E+00
 cg2d: Sum(rhs),rhsMax =   1.55838826287891E-07  9.48972893204264E+00
 cg2d: Sum(rhs),rhsMax =   1.55814433355772E-07  9.49121303094114E+00
 cg2d: Sum(rhs),rhsMax =   1.55789983580235E-07  9.49272675313569E+00
 cg2d: Sum(rhs),rhsMax =   1.55764709575124E-07  9.49427013125867E+00
 cg2d: Sum(rhs),rhsMax =   1.55739108720354E-07  9.49584209100241E+00
 cg2d: Sum(rhs),rhsMax =   1.55712911009687E-07  9.49744052944898E+00
 cg2d: Sum(rhs),rhsMax =   1.55686521452481E-07  9.49906241013908E+00
 cg2d: Sum(rhs),rhsMax =   1.55659733991342E-07  9.50070387273709E+00
 cg2d: Sum(rhs),rhsMax =   1.55632626785973E-07  9.50236035485632E+00
 cg2d: Sum(rhs),rhsMax =   1.55605491158894E-07  9.50402672184669E+00
 cg2d: Sum(rhs),rhsMax =   1.55578298688397E-07  9.50569741335586E+00
 cg2d: Sum(rhs),rhsMax =   1.55551077796190E-07  9.50736658442417E+00
 cg2d: Sum(rhs),rhsMax =   1.55523885325692E-07  9.50902827319058E+00
 cg2d: Sum(rhs),rhsMax =   1.55497183129683E-07  9.51067651838719E+00
 cg2d: Sum(rhs),rhsMax =   1.55470786467049E-07  9.51230545785063E+00
 cg2d: Sum(rhs),rhsMax =   1.55444702443219E-07  9.51390942883206E+00
 cg2d: Sum(rhs),rhsMax =   1.55418959479903E-07  9.51548308991335E+00
 cg2d: Sum(rhs),rhsMax =   1.55394317857827E-07  9.51702152785329E+00
 cg2d: Sum(rhs),rhsMax =   1.55369711762887E-07  9.51852032989996E+00
 cg2d: Sum(rhs),rhsMax =   1.55346036478932E-07  9.51997562350372E+00
 cg2d: Sum(rhs),rhsMax =   1.55323576223054E-07  9.52138408524577E+00
 cg2d: Sum(rhs),rhsMax =   1.55301350446280E-07  9.52274293287698E+00
 cg2d: Sum(rhs),rhsMax =   1.55280744706943E-07  9.52404992562530E+00
 cg2d: Sum(rhs),rhsMax =   1.55260174494742E-07  9.52530334700116E+00
 cg2d: Sum(rhs),rhsMax =   1.55241302479681E-07  9.52650198435958E+00
 cg2d: Sum(rhs),rhsMax =   1.55222487308038E-07  9.52764509643312E+00
 cg2d: Sum(rhs),rhsMax =   1.55204908480755E-07  9.52873236598035E+00
 cg2d: Sum(rhs),rhsMax =   1.55188487838132E-07  9.52976385013957E+00
 cg2d: Sum(rhs),rhsMax =   1.55173047744483E-07  9.53073993449898E+00
 cg2d: Sum(rhs),rhsMax =   1.55157991343913E-07  9.53166115429964E+00
 cg2d: Sum(rhs),rhsMax =   1.55143979441164E-07  9.53252820084563E+00
 EXTERNAL_FIELDS_LOAD, it=   3600210 : Reading new data, i0,i1=    4    5 (prev=    3    4 )
 DIC_FIELDS_LOAD, it=   3600210 : Reading new data, i0,i1=    4    5 (prev=    3    4 )
 cg2d: Sum(rhs),rhsMax =   1.55130905454826E-07  9.53334182315816E+00
 cg2d: Sum(rhs),rhsMax =   1.55118726752335E-07  9.53411543180110E+00
 cg2d: Sum(rhs),rhsMax =   1.55106960164630E-07  9.53485647400445E+00
 cg2d: Sum(rhs),rhsMax =   1.55095513321157E-07  9.53557144961540E+00
 cg2d: Sum(rhs),rhsMax =   1.55084286745932E-07  9.53626437508729E+00
 cg2d: Sum(rhs),rhsMax =   1.55073522023486E-07  9.53693893005197E+00
 cg2d: Sum(rhs),rhsMax =   1.55063091256125E-07  9.53759780592152E+00
 cg2d: Sum(rhs),rhsMax =   1.55052710226755E-07  9.53824281869492E+00
 cg2d: Sum(rhs),rhsMax =   1.55042712890463E-07  9.53887512481608E+00
 cg2d: Sum(rhs),rhsMax =   1.55032850557291E-07  9.53949557057448E+00
 cg2d: Sum(rhs),rhsMax =   1.55023101910956E-07  9.54010511361926E+00
 cg2d: Sum(rhs),rhsMax =   1.55013388791758E-07  9.54070462884507E+00
 cg2d: Sum(rhs),rhsMax =   1.55003839097390E-07  9.54129438984927E+00
 cg2d: Sum(rhs),rhsMax =   1.54994630463534E-07  9.54187344979344E+00
 cg2d: Sum(rhs),rhsMax =   1.54985528411089E-07  9.54243967644670E+00
 cg2d: Sum(rhs),rhsMax =   1.54976746102875E-07  9.54298998248434E+00
 cg2d: Sum(rhs),rhsMax =   1.54968013532653E-07  9.54352062450418E+00
 cg2d: Sum(rhs),rhsMax =   1.54960090981149E-07  9.54402746047673E+00
 cg2d: Sum(rhs),rhsMax =   1.54952580544432E-07  9.54450615312909E+00
 cg2d: Sum(rhs),rhsMax =   1.54945666963613E-07  9.54495237452022E+00
 cg2d: Sum(rhs),rhsMax =   4.16166322736444E-07  9.54536181630374E+00
 cg2d: Sum(rhs),rhsMax =   4.16150697901685E-07  9.54573099102352E+00
 cg2d: Sum(rhs),rhsMax =   4.16136842318338E-07  9.54605631211720E+00
 cg2d: Sum(rhs),rhsMax =   4.16125132574052E-07  9.54633483324100E+00
 cg2d: Sum(rhs),rhsMax =   4.16115703671949E-07  9.54656411764638E+00
 cg2d: Sum(rhs),rhsMax =   4.16108456136044E-07  9.54674226618322E+00
 cg2d: Sum(rhs),rhsMax =   4.16103524969458E-07  9.54686791741731E+00
 cg2d: Sum(rhs),rhsMax =   4.16100512268258E-07  9.54694022856018E+00
 cg2d: Sum(rhs),rhsMax =   4.16100519373686E-07  9.54695883427150E+00
 cg2d: Sum(rhs),rhsMax =   4.16102096778559E-07  9.54692378139332E+00
 cg2d: Sum(rhs),rhsMax =   4.16166322736444E-07  9.54536181630374E+00
 cg2d: Sum(rhs),rhsMax =   4.16150697901685E-07  9.54573099102352E+00
 cg2d: Sum(rhs),rhsMax =   4.16136842318338E-07  9.54605631211720E+00
 cg2d: Sum(rhs),rhsMax =   4.16125132574052E-07  9.54633483324100E+00
 cg2d: Sum(rhs),rhsMax =   4.16115703671949E-07  9.54656411764638E+00
 cg2d: Sum(rhs),rhsMax =   4.16108456136044E-07  9.54674226618322E+00
 cg2d: Sum(rhs),rhsMax =   4.16103524969458E-07  9.54686791741731E+00
 cg2d: Sum(rhs),rhsMax =   4.16100512268258E-07  9.54694022856018E+00
 cg2d: Sum(rhs),rhsMax =   4.16100519373686E-07  9.54695883427150E+00
 cg2d: Sum(rhs),rhsMax =  -3.51104972651228E-07  9.54692373339248E+00
 cg2d: Sum(rhs),rhsMax =   2.97228908152647E-12  4.95142259014251E-02
 cg2d: Sum(rhs),rhsMax =   4.16166322736444E-07  9.54536181630374E+00
 cg2d: Sum(rhs),rhsMax =   4.16150697901685E-07  9.54573099102352E+00
 cg2d: Sum(rhs),rhsMax =   4.16136842318338E-07  9.54605631211720E+00
 cg2d: Sum(rhs),rhsMax =   4.16125132574052E-07  9.54633483324100E+00
 cg2d: Sum(rhs),rhsMax =   4.16115703671949E-07  9.54656411764638E+00
 cg2d: Sum(rhs),rhsMax =   4.16108456136044E-07  9.54674226618322E+00
 cg2d: Sum(rhs),rhsMax =   4.16103524969458E-07  9.54686791741731E+00
 cg2d: Sum(rhs),rhsMax =   4.16100512268258E-07  9.54694022856018E+00
 cg2d: Sum(rhs),rhsMax =   1.81013732003521E-07  9.54695903985824E+00
 cg2d: Sum(rhs),rhsMax =   3.00648395068492E-12  4.81461235129377E-02
 cg2d: Sum(rhs),rhsMax =   4.16166322736444E-07  9.54536181630374E+00
 cg2d: Sum(rhs),rhsMax =   4.16150697901685E-07  9.54573099102352E+00
 cg2d: Sum(rhs),rhsMax =   4.16136842318338E-07  9.54605631211720E+00
 cg2d: Sum(rhs),rhsMax =   4.16125132574052E-07  9.54633483324100E+00
 cg2d: Sum(rhs),rhsMax =   4.16115703671949E-07  9.54656411764638E+00
 cg2d: Sum(rhs),rhsMax =   4.16108456136044E-07  9.54674226618322E+00
 cg2d: Sum(rhs),rhsMax =   4.16103524969458E-07  9.54686791741731E+00
 cg2d: Sum(rhs),rhsMax =  -4.61164354703669E-07  9.54694001420586E+00
(PID.TID 0000.0001) // =======================================================
(PID.TID 0000.0001) // Begin AD_MONITOR dynamic field statistics
(PID.TID 0000.0001) // =======================================================
(PID.TID 0000.0001) %MON ad_time_tsnumber             =               3600238
(PID.TID 0000.0001) %MON ad_time_secondsf             =   1.5553028160000E+11
(PID.TID 0000.0001) %MON ad_dynstat_adeta_max         =   1.0839820503580E+03
(PID.TID 0000.0001) %MON ad_dynstat_adeta_min         =  -5.6751397528635E+03
(PID.TID 0000.0001) %MON ad_dynstat_adeta_mean        =  -6.1976330843642E+01
(PID.TID 0000.0001) %MON ad_dynstat_adeta_sd          =   1.0929813192728E+03
(PID.TID 0000.0001) %MON ad_dynstat_adeta_del2        =   9.3764310562622E+00
(PID.TID 0000.0001) %MON ad_dynstat_aduvel_max        =   3.4793906280255E+04
(PID.TID 0000.0001) %MON ad_dynstat_aduvel_min        =  -1.8830700475177E+04
(PID.TID 0000.0001) %MON ad_dynstat_aduvel_mean       =   1.2209816004977E+02
(PID.TID 0000.0001) %MON ad_dynstat_aduvel_sd         =   1.2293308291099E+03
(PID.TID 0000.0001) %MON ad_dynstat_aduvel_del2       =   5.6523708720666E+00
(PID.TID 0000.0001) %MON ad_dynstat_advvel_max        =   2.2525734320863E+04
(PID.TID 0000.0001) %MON ad_dynstat_advvel_min        =  -2.3723783489162E+04
(PID.TID 0000.0001) %MON ad_dynstat_advvel_mean       =   2.7708432652653E+01
(PID.TID 0000.0001) %MON ad_dynstat_advvel_sd         =   1.3964594683197E+03
(PID.TID 0000.0001) %MON ad_dynstat_advvel_del2       =   5.9292966738182E+00
(PID.TID 0000.0001) %MON ad_dynstat_adwvel_max        =   7.0875284130323E+03
(PID.TID 0000.0001) %MON ad_dynstat_adwvel_min        =  -8.8569382604178E+04
(PID.TID 0000.0001) %MON ad_dynstat_adwvel_mean       =  -3.2359134113224E+00
(PID.TID 0000.0001) %MON ad_dynstat_adwvel_sd         =   3.0613691051260E+02
(PID.TID 0000.0001) %MON ad_dynstat_adwvel_del2       =   8.1270798357547E+00
(PID.TID 0000.0001) %MON ad_dynstat_adtheta_max       =   4.0929997525163E+03
(PID.TID 0000.0001) %MON ad_dynstat_adtheta_min       =  -5.9710159681222E+03
(PID.TID 0000.0001) %MON ad_dynstat_adtheta_mean      =   1.6326314994271E+00
(PID.TID 0000.0001) %MON ad_dynstat_adtheta_sd        =   3.3852266200317E+02
(PID.TID 0000.0001) %MON ad_dynstat_adtheta_del2      =   1.0432681949751E+00
(PID.TID 0000.0001) %MON ad_dynstat_adsalt_max        =   2.6829079471180E+04
(PID.TID 0000.0001) %MON ad_dynstat_adsalt_min        =  -1.9825543304432E+04
(PID.TID 0000.0001) %MON ad_dynstat_adsalt_mean       =  -8.7662155204965E+00
(PID.TID 0000.0001) %MON ad_dynstat_adsalt_sd         =   1.7766619976329E+03
(PID.TID 0000.0001) %MON ad_dynstat_adsalt_del2       =   5.2791090472429E+00
(PID.TID 0000.0001) %MON ad_dynstat_adsst_max         =   1.4900941238314E+01
(PID.TID 0000.0001) %MON ad_dynstat_adsst_min         =  -5.6032839655059E+00
(PID.TID 0000.0001) %MON ad_dynstat_adsst_mean        =   1.9156974164153E-02
(PID.TID 0000.0001) %MON ad_dynstat_adsst_sd          =   2.1843223231077E+00
(PID.TID 0000.0001) %MON ad_dynstat_adsst_del2        =   2.4103855728201E-02
(PID.TID 0000.0001) %MON ad_dynstat_adsss_max         =   2.0338763468305E+01
(PID.TID 0000.0001) %MON ad_dynstat_adsss_min         =  -6.6073087792330E+01
(PID.TID 0000.0001) %MON ad_dynstat_adsss_mean        =   2.3351963535593E-01
(PID.TID 0000.0001) %MON ad_dynstat_adsss_sd          =   6.9034721338949E+00
(PID.TID 0000.0001) %MON ad_dynstat_adsss_del2        =   7.8561416776463E-02
(PID.TID 0000.0001) %MON ad_forcing_adqnet_max        =   0.0000000000000E+00
(PID.TID 0000.0001) %MON ad_forcing_adqnet_min        =   0.0000000000000E+00
(PID.TID 0000.0001) %MON ad_forcing_adqnet_mean       =   0.0000000000000E+00
(PID.TID 0000.0001) %MON ad_forcing_adqnet_sd         =   0.0000000000000E+00
(PID.TID 0000.0001) %MON ad_forcing_adqnet_del2       =   0.0000000000000E+00
(PID.TID 0000.0001) %MON ad_forcing_adqsw_max         =   1.2808607949177E-01
(PID.TID 0000.0001) %MON ad_forcing_adqsw_min         =  -4.8499901702086E-01
(PID.TID 0000.0001) %MON ad_forcing_adqsw_mean        =  -2.4641998992030E-03
(PID.TID 0000.0001) %MON ad_forcing_adqsw_sd          =   4.1625349426796E-02
(PID.TID 0000.0001) %MON ad_forcing_adqsw_del2        =   5.0118003107837E-04
(PID.TID 0000.0001) %MON ad_forcing_adempmr_max       =   0.0000000000000E+00
(PID.TID 0000.0001) %MON ad_forcing_adempmr_min       =   0.0000000000000E+00
(PID.TID 0000.0001) %MON ad_forcing_adempmr_mean      =   0.0000000000000E+00
(PID.TID 0000.0001) %MON ad_forcing_adempmr_sd        =   0.0000000000000E+00
(PID.TID 0000.0001) %MON ad_forcing_adempmr_del2      =   0.0000000000000E+00
(PID.TID 0000.0001) %MON ad_forcing_adfu_max          =   0.0000000000000E+00
(PID.TID 0000.0001) %MON ad_forcing_adfu_min          =   0.0000000000000E+00
(PID.TID 0000.0001) %MON ad_forcing_adfu_mean         =   0.0000000000000E+00
(PID.TID 0000.0001) %MON ad_forcing_adfu_sd           =   0.0000000000000E+00
(PID.TID 0000.0001) %MON ad_forcing_adfu_del2         =   0.0000000000000E+00
(PID.TID 0000.0001) %MON ad_forcing_adfv_max          =   0.0000000000000E+00
(PID.TID 0000.0001) %MON ad_forcing_adfv_min          =   0.0000000000000E+00
(PID.TID 0000.0001) %MON ad_forcing_adfv_mean         =   0.0000000000000E+00
(PID.TID 0000.0001) %MON ad_forcing_adfv_sd           =   0.0000000000000E+00
(PID.TID 0000.0001) %MON ad_forcing_adfv_del2         =   0.0000000000000E+00
(PID.TID 0000.0001) // =======================================================
(PID.TID 0000.0001) // End AD_MONITOR dynamic field statistics
(PID.TID 0000.0001) // =======================================================
(PID.TID 0000.0001) // =======================================================
(PID.TID 0000.0001) // Begin AD_MONITOR ptracer field statistics
(PID.TID 0000.0001) // =======================================================
(PID.TID 0000.0001) %MON ad_trcstat_adptracer01_max   =   0.0000000000000E+00
(PID.TID 0000.0001) %MON ad_trcstat_adptracer01_min   =   0.0000000000000E+00
(PID.TID 0000.0001) %MON ad_trcstat_adptracer01_mean  =   0.0000000000000E+00
(PID.TID 0000.0001) %MON ad_trcstat_adptracer01_sd    =   0.0000000000000E+00
(PID.TID 0000.0001) %MON ad_trcstat_adptracer01_del2  =   0.0000000000000E+00
(PID.TID 0000.0001) %MON ad_trcstat_adptracer02_max   =   0.0000000000000E+00
(PID.TID 0000.0001) %MON ad_trcstat_adptracer02_min   =   0.0000000000000E+00
(PID.TID 0000.0001) %MON ad_trcstat_adptracer02_mean  =   0.0000000000000E+00
(PID.TID 0000.0001) %MON ad_trcstat_adptracer02_sd    =   0.0000000000000E+00
(PID.TID 0000.0001) %MON ad_trcstat_adptracer02_del2  =   0.0000000000000E+00
(PID.TID 0000.0001) %MON ad_trcstat_adptracer03_max   =   1.5478938401559E-19
(PID.TID 0000.0001) %MON ad_trcstat_adptracer03_min   =  -1.6240287446615E-19
(PID.TID 0000.0001) %MON ad_trcstat_adptracer03_mean  =  -7.6006082199134E-24
(PID.TID 0000.0001) %MON ad_trcstat_adptracer03_sd    =   1.1210941211243E-21
(PID.TID 0000.0001) %MON ad_trcstat_adptracer03_del2  =   4.0068108709115E-24
(PID.TID 0000.0001) %MON ad_trcstat_adptracer04_max   =   3.5007197337381E+06
(PID.TID 0000.0001) %MON ad_trcstat_adptracer04_min   =  -2.6012322827094E+07
(PID.TID 0000.0001) %MON ad_trcstat_adptracer04_mean  =  -2.4605429549855E+05
(PID.TID 0000.0001) %MON ad_trcstat_adptracer04_sd    =   2.1792452980054E+06
(PID.TID 0000.0001) %MON ad_trcstat_adptracer04_del2  =   4.6325366692548E+03
(PID.TID 0000.0001) %MON ad_trcstat_adptracer05_max   =   9.7707591977715E+05
(PID.TID 0000.0001) %MON ad_trcstat_adptracer05_min   =  -1.0241222391220E+05
(PID.TID 0000.0001) %MON ad_trcstat_adptracer05_mean  =   9.3339332365924E+03
(PID.TID 0000.0001) %MON ad_trcstat_adptracer05_sd    =   8.2292972040928E+04
(PID.TID 0000.0001) %MON ad_trcstat_adptracer05_del2  =   1.7701609397069E+02
(PID.TID 0000.0001) %MON ad_trcstat_adptracer06_max   =   1.0813679419757E+10
(PID.TID 0000.0001) %MON ad_trcstat_adptracer06_min   =  -7.6819742860311E+09
(PID.TID 0000.0001) %MON ad_trcstat_adptracer06_mean  =   8.9074744269492E+06
(PID.TID 0000.0001) %MON ad_trcstat_adptracer06_sd    =   3.7792248713370E+08
(PID.TID 0000.0001) %MON ad_trcstat_adptracer06_del2  =   1.5826030254414E+06
(PID.TID 0000.0001) %MON ad_trcstat_adptracer07_max   =   0.0000000000000E+00
(PID.TID 0000.0001) %MON ad_trcstat_adptracer07_min   =   0.0000000000000E+00
(PID.TID 0000.0001) %MON ad_trcstat_adptracer07_mean  =   0.0000000000000E+00
(PID.TID 0000.0001) %MON ad_trcstat_adptracer07_sd    =   0.0000000000000E+00
(PID.TID 0000.0001) %MON ad_trcstat_adptracer07_del2  =   0.0000000000000E+00
(PID.TID 0000.0001) %MON ad_trcstat_adptracer08_max   =   0.0000000000000E+00
(PID.TID 0000.0001) %MON ad_trcstat_adptracer08_min   =   0.0000000000000E+00
(PID.TID 0000.0001) %MON ad_trcstat_adptracer08_mean  =   0.0000000000000E+00
(PID.TID 0000.0001) %MON ad_trcstat_adptracer08_sd    =   0.0000000000000E+00
(PID.TID 0000.0001) %MON ad_trcstat_adptracer08_del2  =   0.0000000000000E+00
(PID.TID 0000.0001) %MON ad_trcstat_adptracer09_max   =   0.0000000000000E+00
(PID.TID 0000.0001) %MON ad_trcstat_adptracer09_min   =   0.0000000000000E+00
(PID.TID 0000.0001) %MON ad_trcstat_adptracer09_mean  =   0.0000000000000E+00
(PID.TID 0000.0001) %MON ad_trcstat_adptracer09_sd    =   0.0000000000000E+00
(PID.TID 0000.0001) %MON ad_trcstat_adptracer09_del2  =   0.0000000000000E+00
(PID.TID 0000.0001) // =======================================================
(PID.TID 0000.0001) // End AD_MONITOR ptracer field statistics
(PID.TID 0000.0001) // =======================================================
 cg2d: Sum(rhs),rhsMax =   3.05755420981768E-12  4.65522940443516E-02
 cg2d: Sum(rhs),rhsMax =   4.16166322736444E-07  9.54536181630374E+00
 cg2d: Sum(rhs),rhsMax =   4.16150697901685E-07  9.54573099102352E+00
 cg2d: Sum(rhs),rhsMax =   4.16136842318338E-07  9.54605631211720E+00
 cg2d: Sum(rhs),rhsMax =   4.16125132574052E-07  9.54633483324100E+00
 cg2d: Sum(rhs),rhsMax =   4.16115703671949E-07  9.54656411764638E+00
 cg2d: Sum(rhs),rhsMax =   4.16108456136044E-07  9.54674226618322E+00
 cg2d: Sum(rhs),rhsMax =   6.39252100143040E-07  9.54686772284911E+00
 cg2d: Sum(rhs),rhsMax =   2.91144885977701E-12  4.58741294539172E-02
 cg2d: Sum(rhs),rhsMax =   4.16166322736444E-07  9.54536181630374E+00
 cg2d: Sum(rhs),rhsMax =   4.16150697901685E-07  9.54573099102352E+00
 cg2d: Sum(rhs),rhsMax =   4.16136842318338E-07  9.54605631211720E+00
 cg2d: Sum(rhs),rhsMax =   4.16125132574052E-07  9.54633483324100E+00
 cg2d: Sum(rhs),rhsMax =   4.16115703671949E-07  9.54656411764638E+00
 cg2d: Sum(rhs),rhsMax =   1.07373578117631E-06  9.54674241191825E+00
 cg2d: Sum(rhs),rhsMax =   2.60547139419032E-12  5.18817898759055E-02
 cg2d: Sum(rhs),rhsMax =   4.16166322736444E-07  9.54536181630374E+00
 cg2d: Sum(rhs),rhsMax =   4.16150697901685E-07  9.54573099102352E+00
 cg2d: Sum(rhs),rhsMax =   4.16136842318338E-07  9.54605631211720E+00
 cg2d: Sum(rhs),rhsMax =   4.16125132574052E-07  9.54633483324100E+00
 cg2d: Sum(rhs),rhsMax =   3.58060376015601E-07  9.54656431186647E+00
 cg2d: Sum(rhs),rhsMax =   2.41429098934987E-12  5.51687078256384E-02
 cg2d: Sum(rhs),rhsMax =   4.16166322736444E-07  9.54536181630374E+00
 cg2d: Sum(rhs),rhsMax =   4.16150697901685E-07  9.54573099102352E+00
 cg2d: Sum(rhs),rhsMax =   4.16136842318338E-07  9.54605631211720E+00
 cg2d: Sum(rhs),rhsMax =   1.67235155146273E-06  9.54633517487051E+00
 cg2d: Sum(rhs),rhsMax =   2.39674946556079E-12  5.31254991860722E-02
 cg2d: Sum(rhs),rhsMax =   4.16166322736444E-07  9.54536181630374E+00
 cg2d: Sum(rhs),rhsMax =   4.16150697901685E-07  9.54573099102352E+00
 cg2d: Sum(rhs),rhsMax =   1.18055594100497E-06  9.54605600897543E+00
 cg2d: Sum(rhs),rhsMax =   2.49089637804900E-12  5.04457269929756E-02
 cg2d: Sum(rhs),rhsMax =   4.16166322736444E-07  9.54536181630374E+00
 cg2d: Sum(rhs),rhsMax =  -1.33775458266427E-07  9.54573093313596E+00
 cg2d: Sum(rhs),rhsMax =   2.53885801271281E-12  4.84521244665345E-02
 cg2d: Sum(rhs),rhsMax =   4.16166351158154E-07  9.54536181671806E+00
 cg2d: Sum(rhs),rhsMax =   2.42428299657149E-12  4.82656964331518E-02
 EXTERNAL_FIELDS_LOAD, it=   3600000 : Reading new data, i0,i1=   12    1 (prev=   12    5 )
 DIC_FIELDS_LOAD, it=   3600000 : Reading new data, i0,i1=   12    1 (prev=   12    0 )
 cg2d: Sum(rhs),rhsMax =   1.69318610687696E-07  8.73439699737069E+00
 cg2d: Sum(rhs),rhsMax =   1.69217777568065E-07  8.73957985685053E+00
 cg2d: Sum(rhs),rhsMax =   1.69116930237578E-07  8.74478996407667E+00
 cg2d: Sum(rhs),rhsMax =   1.69015713424869E-07  8.75002525197054E+00
 cg2d: Sum(rhs),rhsMax =   1.68913977915963E-07  8.75528319149979E+00
 cg2d: Sum(rhs),rhsMax =   1.68812391621032E-07  8.76056091159563E+00
 cg2d: Sum(rhs),rhsMax =   1.68710130310501E-07  8.76585531016545E+00
 cg2d: Sum(rhs),rhsMax =   1.68607783734842E-07  8.77116317961867E+00
 cg2d: Sum(rhs),rhsMax =   1.68505465580893E-07  8.77648131488675E+00
 cg2d: Sum(rhs),rhsMax =   1.68403296640918E-07  8.78180660701903E+00
 cg2d: Sum(rhs),rhsMax =   1.68301063752097E-07  8.78713610702002E+00
 cg2d: Sum(rhs),rhsMax =   1.68199015604387E-07  8.79246706727320E+00
 cg2d: Sum(rhs),rhsMax =   1.68096867980694E-07  8.79779694946195E+00
 cg2d: Sum(rhs),rhsMax =   1.67995075628369E-07  8.80312339652564E+00
 cg2d: Sum(rhs),rhsMax =   1.67893297486899E-07  8.80844419596376E+00
 cg2d: Sum(rhs),rhsMax =   1.67792002514489E-07  8.81375727000352E+00
 cg2d: Sum(rhs),rhsMax =   1.67690991759173E-07  8.81906074076855E+00
 cg2d: Sum(rhs),rhsMax =   1.67590364696935E-07  8.82435302858595E+00
 cg2d: Sum(rhs),rhsMax =   1.67489801583542E-07  8.82963296688162E+00
 cg2d: Sum(rhs),rhsMax =   1.67389771377202E-07  8.83489991268453E+00
 cg2d: Sum(rhs),rhsMax =   1.67290018282529E-07  8.84015381998810E+00
 cg2d: Sum(rhs),rhsMax =   1.67191025468583E-07  8.84539524558423E+00
 cg2d: Sum(rhs),rhsMax =   1.67091911862371E-07  8.85062527386172E+00
 cg2d: Sum(rhs),rhsMax =   1.66993110894964E-07  8.85584539161906E+00
 cg2d: Sum(rhs),rhsMax =   1.66895297581959E-07  8.86105731971219E+00
 cg2d: Sum(rhs),rhsMax =   1.66797214262715E-07  8.86626284368505E+00
 cg2d: Sum(rhs),rhsMax =   1.66699088310907E-07  8.87146368108963E+00
 cg2d: Sum(rhs),rhsMax =   1.66601175521919E-07  8.87666140941337E+00
 cg2d: Sum(rhs),rhsMax =   1.66503703269427E-07  8.88185744320308E+00
 cg2d: Sum(rhs),rhsMax =   1.66406401547192E-07  8.88705304968201E+00
 EXTERNAL_FIELDS_LOAD, it=   3600030 : Reading new data, i0,i1=    1    2 (prev=   12    1 )
 DIC_FIELDS_LOAD, it=   3600030 : Reading new data, i0,i1=    1    2 (prev=   12    1 )
 cg2d: Sum(rhs),rhsMax =   1.66308751659017E-07  8.89224939629417E+00
 cg2d: Sum(rhs),rhsMax =   1.66211989949261E-07  8.89742905273518E+00
 cg2d: Sum(rhs),rhsMax =   1.66115810884548E-07  8.90258194312370E+00
 cg2d: Sum(rhs),rhsMax =   1.66020008407486E-07  8.90769862985287E+00
 cg2d: Sum(rhs),rhsMax =   1.65925222006535E-07  8.91277064894441E+00
 cg2d: Sum(rhs),rhsMax =   1.65832325649262E-07  8.91779073567431E+00
 cg2d: Sum(rhs),rhsMax =   1.65739969304468E-07  8.92275296238945E+00
 cg2d: Sum(rhs),rhsMax =   1.65648664562923E-07  8.92765282308104E+00
 cg2d: Sum(rhs),rhsMax =   1.65559029596807E-07  8.93248727153984E+00
 cg2d: Sum(rhs),rhsMax =   1.65470908086718E-07  8.93725470683360E+00
 cg2d: Sum(rhs),rhsMax =   1.65383411854236E-07  8.94195490169141E+00
 cg2d: Sum(rhs),rhsMax =   1.65297855403423E-07  8.94658889014494E+00
 cg2d: Sum(rhs),rhsMax =   1.65213478453552E-07  8.95115882656284E+00
 cg2d: Sum(rhs),rhsMax =   1.65130131790647E-07  8.95566783046152E+00
 cg2d: Sum(rhs),rhsMax =   1.65047609357316E-07  8.96011984139981E+00
 cg2d: Sum(rhs),rhsMax =   1.64966841964542E-07  8.96451949805779E+00
 cg2d: Sum(rhs),rhsMax =   1.64886614584248E-07  8.96887204401274E+00
 cg2d: Sum(rhs),rhsMax =   1.64807353542074E-07  8.97318325974703E+00
 cg2d: Sum(rhs),rhsMax =   1.64728760410071E-07  8.97745941334167E+00
 cg2d: Sum(rhs),rhsMax =   1.64650550971146E-07  8.98170721084718E+00
 cg2d: Sum(rhs),rhsMax =   1.64573251026923E-07  8.98593374417503E+00
 cg2d: Sum(rhs),rhsMax =   1.64495830290434E-07  8.99014648706113E+00
 cg2d: Sum(rhs),rhsMax =   1.64419148518391E-07  8.99435313191228E+00
 cg2d: Sum(rhs),rhsMax =   1.64342466746348E-07  8.99856143301709E+00
 cg2d: Sum(rhs),rhsMax =   1.64265266278107E-07  9.00277891979376E+00
 cg2d: Sum(rhs),rhsMax =   1.64188094231577E-07  9.00701226475977E+00
 cg2d: Sum(rhs),rhsMax =   1.64110602440815E-07  9.01126800872608E+00
 cg2d: Sum(rhs),rhsMax =   1.64032670113556E-07  9.01555262481054E+00
 cg2d: Sum(rhs),rhsMax =   1.63954233300956E-07  9.01987189615712E+00
 cg2d: Sum(rhs),rhsMax =   1.63875164105320E-07  9.02423093235336E+00
 cg2d: Sum(rhs),rhsMax =   1.63795320418103E-07  9.02863410711437E+00
 cg2d: Sum(rhs),rhsMax =   1.63714346967936E-07  9.03308492807320E+00
 cg2d: Sum(rhs),rhsMax =   1.63633295358068E-07  9.03758589550099E+00
 cg2d: Sum(rhs),rhsMax =   1.63551085563540E-07  9.04213843256992E+00
 cg2d: Sum(rhs),rhsMax =   1.63468094172003E-07  9.04674278808053E+00
 cg2d: Sum(rhs),rhsMax =   1.63383937490380E-07  9.05139800068177E+00
 cg2d: Sum(rhs),rhsMax =   1.63299503697090E-07  9.05610191103194E+00
 cg2d: Sum(rhs),rhsMax =   1.63213783821448E-07  9.06085121060704E+00
 cg2d: Sum(rhs),rhsMax =   1.63127957364395E-07  9.06564152308058E+00
 cg2d: Sum(rhs),rhsMax =   1.63041192990931E-07  9.07046751690403E+00
 cg2d: Sum(rhs),rhsMax =   1.62954130189519E-07  9.07532304700718E+00
 cg2d: Sum(rhs),rhsMax =   1.62866854225285E-07  9.08020131376247E+00
 cg2d: Sum(rhs),rhsMax =   1.62779372203659E-07  9.08509502964907E+00
 cg2d: Sum(rhs),rhsMax =   1.62691954130878E-07  9.08999659239780E+00
 cg2d: Sum(rhs),rhsMax =   1.62604585796089E-07  9.09489817218861E+00
 cg2d: Sum(rhs),rhsMax =   1.62517501678394E-07  9.09979218349167E+00
 cg2d: Sum(rhs),rhsMax =   1.62430644934375E-07  9.10467101498796E+00
 cg2d: Sum(rhs),rhsMax =   1.62344292675698E-07  9.10952746457549E+00
 cg2d: Sum(rhs),rhsMax =   1.62258693592321E-07  9.11435477997425E+00
 cg2d: Sum(rhs),rhsMax =   1.62174011109073E-07  9.11914675387257E+00
 cg2d: Sum(rhs),rhsMax =   1.62089747846039E-07  9.12389782853965E+00
 cg2d: Sum(rhs),rhsMax =   1.62006273285442E-07  9.12860319621454E+00
 cg2d: Sum(rhs),rhsMax =   1.61924113228906E-07  9.13325897230795E+00
 cg2d: Sum(rhs),rhsMax =   1.61842727663952E-07  9.13786227569362E+00
 cg2d: Sum(rhs),rhsMax =   1.61762493178230E-07  9.14241138202085E+00
 cg2d: Sum(rhs),rhsMax =   1.61683040289518E-07  9.14690582567222E+00
 cg2d: Sum(rhs),rhsMax =   1.61604830850592E-07  9.15134644986131E+00
 cg2d: Sum(rhs),rhsMax =   1.61527417219531E-07  9.15573538211935E+00
 cg2d: Sum(rhs),rhsMax =   1.61451261249113E-07  9.16007592950651E+00
 cg2d: Sum(rhs),rhsMax =   1.61375858453994E-07  9.16437240256295E+00
 EXTERNAL_FIELDS_LOAD, it=   3600090 : Reading new data, i0,i1=    2    3 (prev=    1    2 )
 DIC_FIELDS_LOAD, it=   3600090 : Reading new data, i0,i1=    2    3 (prev=    1    2 )
 cg2d: Sum(rhs),rhsMax =   1.61301031198491E-07  9.16862988474514E+00
 cg2d: Sum(rhs),rhsMax =   1.61226488160082E-07  9.17287253571495E+00
 cg2d: Sum(rhs),rhsMax =   1.61152193811631E-07  9.17711746016568E+00
 cg2d: Sum(rhs),rhsMax =   1.61077544191812E-07  9.18138108877058E+00
 cg2d: Sum(rhs),rhsMax =   1.61002326137805E-07  9.18567861304476E+00
 cg2d: Sum(rhs),rhsMax =   1.60926205694523E-07  9.19002353014883E+00
 cg2d: Sum(rhs),rhsMax =   1.60849204178248E-07  9.19442728641192E+00
 cg2d: Sum(rhs),rhsMax =   1.60771165269580E-07  9.19889902438565E+00
 cg2d: Sum(rhs),rhsMax =   1.60691676853730E-07  9.20344543538162E+00
 cg2d: Sum(rhs),rhsMax =   1.60610625243862E-07  9.20807071616803E+00
 cg2d: Sum(rhs),rhsMax =   1.60529111781216E-07  9.21277660183589E+00
 cg2d: Sum(rhs),rhsMax =   1.60445615904337E-07  9.21756247694247E+00
 cg2d: Sum(rhs),rhsMax =   1.60361018686217E-07  9.22242554775714E+00
 cg2d: Sum(rhs),rhsMax =   1.60275249072583E-07  9.22736105179622E+00
 cg2d: Sum(rhs),rhsMax =   1.60188832865060E-07  9.23236249675336E+00
 cg2d: Sum(rhs),rhsMax =   1.60101009782920E-07  9.23742190581730E+00
 cg2d: Sum(rhs),rhsMax =   1.60012376682062E-07  9.24253005999046E+00
 cg2d: Sum(rhs),rhsMax =   1.59923374098980E-07  9.24767675774736E+00
 cg2d: Sum(rhs),rhsMax =   1.59833348334359E-07  9.25285099530738E+00
 cg2d: Sum(rhs),rhsMax =   1.59743947847346E-07  9.25804118480452E+00
 cg2d: Sum(rhs),rhsMax =   1.59654156561828E-07  9.26323537521839E+00
 cg2d: Sum(rhs),rhsMax =   1.59564649493404E-07  9.26842146305946E+00
 cg2d: Sum(rhs),rhsMax =   1.59475810335152E-07  9.27358734254206E+00
 cg2d: Sum(rhs),rhsMax =   1.59387511189379E-07  9.27872091717081E+00
 cg2d: Sum(rhs),rhsMax =   1.59299617052966E-07  9.28381136814303E+00
 cg2d: Sum(rhs),rhsMax =   1.59212980577195E-07  9.28884862895416E+00
 cg2d: Sum(rhs),rhsMax =   1.59127175436424E-07  9.29382345652557E+00
 cg2d: Sum(rhs),rhsMax =   1.59043672454118E-07  9.29872780684878E+00
 cg2d: Sum(rhs),rhsMax =   1.58960915541684E-07  9.30355510475018E+00
 cg2d: Sum(rhs),rhsMax =   1.58879650768995E-07  9.30830036704988E+00
 cg2d: Sum(rhs),rhsMax =   1.58800041560880E-07  9.31296021040285E+00
 cg2d: Sum(rhs),rhsMax =   1.58721938703366E-07  9.31753280098406E+00
 cg2d: Sum(rhs),rhsMax =   1.58645484304998E-07  9.32201775765958E+00
 cg2d: Sum(rhs),rhsMax =   1.58570394148683E-07  9.32641602969786E+00
 cg2d: Sum(rhs),rhsMax =   1.58496945346087E-07  9.33072978578710E+00
 cg2d: Sum(rhs),rhsMax =   1.58424988683237E-07  9.33496230239218E+00
 cg2d: Sum(rhs),rhsMax =   1.58354438895003E-07  9.33911784987238E+00
 cg2d: Sum(rhs),rhsMax =   1.58284855444890E-07  9.34320156451738E+00
 cg2d: Sum(rhs),rhsMax =   1.58217005719052E-07  9.34721929418330E+00
 cg2d: Sum(rhs),rhsMax =   1.58150037066207E-07  9.35117742178592E+00
 cg2d: Sum(rhs),rhsMax =   1.58083715007251E-07  9.35508267492027E+00
 cg2d: Sum(rhs),rhsMax =   1.58018764295775E-07  9.35894192419005E+00
 cg2d: Sum(rhs),rhsMax =   1.57953891744000E-07  9.36276197821802E+00
 cg2d: Sum(rhs),rhsMax =   1.57889999741201E-07  9.36654938518496E+00
 cg2d: Sum(rhs),rhsMax =   1.57826519853188E-07  9.37031025051024E+00
 cg2d: Sum(rhs),rhsMax =   1.57763658137355E-07  9.37405007348543E+00
 cg2d: Sum(rhs),rhsMax =   1.57700689840112E-07  9.37777361441556E+00
 cg2d: Sum(rhs),rhsMax =   1.57638105235947E-07  9.38148479575939E+00
 cg2d: Sum(rhs),rhsMax =   1.57575861692294E-07  9.38518664193280E+00
 cg2d: Sum(rhs),rhsMax =   1.57513689202915E-07  9.38888125563880E+00
 cg2d: Sum(rhs),rhsMax =   1.57451452764690E-07  9.39256983098558E+00
 cg2d: Sum(rhs),rhsMax =   1.57389870025781E-07  9.39625269423587E+00
 cg2d: Sum(rhs),rhsMax =   1.57327839644950E-07  9.39992937198207E+00
 cg2d: Sum(rhs),rhsMax =   1.57266605071982E-07  9.40359867449008E+00
 cg2d: Sum(rhs),rhsMax =   1.57205221285039E-07  9.40725878524180E+00
 cg2d: Sum(rhs),rhsMax =   1.57144384616004E-07  9.41090734419932E+00
 cg2d: Sum(rhs),rhsMax =   1.57083441365558E-07  9.41454153230469E+00
 cg2d: Sum(rhs),rhsMax =   1.57022817859342E-07  9.41815815729745E+00
 cg2d: Sum(rhs),rhsMax =   1.56962848052444E-07  9.42175373864234E+00
 cg2d: Sum(rhs),rhsMax =   1.56903354309179E-07  9.42532458834380E+00
 EXTERNAL_FIELDS_LOAD, it=   3600150 : Reading new data, i0,i1=    3    4 (prev=    2    3 )
 DIC_FIELDS_LOAD, it=   3600150 : Reading new data, i0,i1=    3    4 (prev=    2    3 )
 cg2d: Sum(rhs),rhsMax =   1.56844386367538E-07  9.42886688985512E+00
 cg2d: Sum(rhs),rhsMax =   1.56786050808932E-07  9.43235379724390E+00
 cg2d: Sum(rhs),rhsMax =   1.56729463185457E-07  9.43576817325861E+00
 cg2d: Sum(rhs),rhsMax =   1.56674040852067E-07  9.43909408079935E+00
 cg2d: Sum(rhs),rhsMax =   1.56620934887997E-07  9.44231724780375E+00
 cg2d: Sum(rhs),rhsMax =   1.56569370801662E-07  9.44542544012602E+00
 cg2d: Sum(rhs),rhsMax =   1.56519689653578E-07  9.44840873884622E+00
 cg2d: Sum(rhs),rhsMax =   1.56472822254727E-07  9.45125971609770E+00
 cg2d: Sum(rhs),rhsMax =   1.56427617525878E-07  9.45397350936240E+00
 cg2d: Sum(rhs),rhsMax =   1.56384757588057E-07  9.45654781865251E+00
 cg2d: Sum(rhs),rhsMax =   1.56344832191735E-07  9.45898283383023E+00
 cg2d: Sum(rhs),rhsMax =   1.56306633414260E-07  9.46128109723642E+00
 cg2d: Sum(rhs),rhsMax =   1.56271084961190E-07  9.46344731860571E+00
 cg2d: Sum(rhs),rhsMax =   1.56237142334703E-07  9.46548815348608E+00
 cg2d: Sum(rhs),rhsMax =   1.56205267387577E-07  9.46741194668024E+00
 cg2d: Sum(rhs),rhsMax =   1.56175239851564E-07  9.46922844872215E+00
 cg2d: Sum(rhs),rhsMax =   1.56147137886364E-07  9.47094849760508E+00
 cg2d: Sum(rhs),rhsMax =   1.56120208316679E-07  9.47258374009707E+00
 cg2d: Sum(rhs),rhsMax =   1.56094635883619E-07  9.47414632630027E+00
 cg2d: Sum(rhs),rhsMax =   1.56069631884748E-07  9.47564860958206E+00
 cg2d: Sum(rhs),rhsMax =   1.56045885546519E-07  9.47710285869683E+00
 cg2d: Sum(rhs),rhsMax =   1.56022359476538E-07  9.47852099456481E+00
 cg2d: Sum(rhs),rhsMax =   1.55999494211301E-07  9.47991435650409E+00
 cg2d: Sum(rhs),rhsMax =   1.55977154747688E-07  9.48129350219173E+00
 cg2d: Sum(rhs),rhsMax =   1.55954339220443E-07  9.48266804354933E+00
 cg2d: Sum(rhs),rhsMax =   1.55931793699438E-07  9.48404652431056E+00
 cg2d: Sum(rhs),rhsMax =   1.55909042121039E-07  9.48543632689988E+00
 cg2d: Sum(rhs),rhsMax =   1.55885821584434E-07  9.48684360539340E+00
 cg2d: Sum(rhs),rhsMax =   1.55862714734667E-07  9.48827325855926E+00
 cg2d: Sum(rhs),rhsMax =   1.55838826287891E-07  9.48972893204264E+00
 cg2d: Sum(rhs),rhsMax =   1.55814433355772E-07  9.49121303094114E+00
 cg2d: Sum(rhs),rhsMax =   1.55789983580235E-07  9.49272675313569E+00
 cg2d: Sum(rhs),rhsMax =   1.55764709575124E-07  9.49427013125867E+00
 cg2d: Sum(rhs),rhsMax =   1.55739108720354E-07  9.49584209100241E+00
 cg2d: Sum(rhs),rhsMax =   1.55712911009687E-07  9.49744052944898E+00
 cg2d: Sum(rhs),rhsMax =   1.55686521452481E-07  9.49906241013908E+00
 cg2d: Sum(rhs),rhsMax =   1.55659733991342E-07  9.50070387273709E+00
 cg2d: Sum(rhs),rhsMax =   1.55632626785973E-07  9.50236035485632E+00
 cg2d: Sum(rhs),rhsMax =   1.55605491158894E-07  9.50402672184669E+00
 cg2d: Sum(rhs),rhsMax =   1.55578298688397E-07  9.50569741335586E+00
 cg2d: Sum(rhs),rhsMax =   1.55551077796190E-07  9.50736658442417E+00
 cg2d: Sum(rhs),rhsMax =   1.55523885325692E-07  9.50902827319058E+00
 cg2d: Sum(rhs),rhsMax =   1.55497183129683E-07  9.51067651838719E+00
 cg2d: Sum(rhs),rhsMax =   1.55470786467049E-07  9.51230545785063E+00
 cg2d: Sum(rhs),rhsMax =   1.55444702443219E-07  9.51390942883206E+00
 cg2d: Sum(rhs),rhsMax =   1.55418959479903E-07  9.51548308991335E+00
 cg2d: Sum(rhs),rhsMax =   1.55394317857827E-07  9.51702152785329E+00
 cg2d: Sum(rhs),rhsMax =   1.55369711762887E-07  9.51852032989996E+00
 cg2d: Sum(rhs),rhsMax =   1.55346036478932E-07  9.51997562350372E+00
 cg2d: Sum(rhs),rhsMax =   1.55323576223054E-07  9.52138408524577E+00
 cg2d: Sum(rhs),rhsMax =   1.55301350446280E-07  9.52274293287698E+00
 cg2d: Sum(rhs),rhsMax =   1.55280744706943E-07  9.52404992562530E+00
 cg2d: Sum(rhs),rhsMax =   1.55260174494742E-07  9.52530334700116E+00
 cg2d: Sum(rhs),rhsMax =   1.55241302479681E-07  9.52650198435958E+00
 cg2d: Sum(rhs),rhsMax =   1.55222487308038E-07  9.52764509643312E+00
 cg2d: Sum(rhs),rhsMax =   1.55204908480755E-07  9.52873236598035E+00
 cg2d: Sum(rhs),rhsMax =   1.55188487838132E-07  9.52976385013957E+00
 cg2d: Sum(rhs),rhsMax =   1.55173047744483E-07  9.53073993449898E+00
 cg2d: Sum(rhs),rhsMax =   1.55157991343913E-07  9.53166115429964E+00
 cg2d: Sum(rhs),rhsMax =   1.55143979441164E-07  9.53252820084563E+00
 EXTERNAL_FIELDS_LOAD, it=   3600210 : Reading new data, i0,i1=    4    5 (prev=    3    4 )
 DIC_FIELDS_LOAD, it=   3600210 : Reading new data, i0,i1=    4    5 (prev=    3    4 )
 cg2d: Sum(rhs),rhsMax =   1.55130905454826E-07  9.53334182315816E+00
 cg2d: Sum(rhs),rhsMax =   1.55118726752335E-07  9.53411543180110E+00
 cg2d: Sum(rhs),rhsMax =   1.55106960164630E-07  9.53485647400445E+00
 cg2d: Sum(rhs),rhsMax =   1.55095513321157E-07  9.53557144961540E+00
 cg2d: Sum(rhs),rhsMax =   1.55084286745932E-07  9.53626437508729E+00
 cg2d: Sum(rhs),rhsMax =   1.55073522023486E-07  9.53693893005197E+00
 cg2d: Sum(rhs),rhsMax =   1.55063091256125E-07  9.53759780592152E+00
 cg2d: Sum(rhs),rhsMax =   1.55052710226755E-07  9.53824281869492E+00
 cg2d: Sum(rhs),rhsMax =   1.55042712890463E-07  9.53887512481608E+00
 cg2d: Sum(rhs),rhsMax =   1.55032850557291E-07  9.53949557057448E+00
 cg2d: Sum(rhs),rhsMax =   3.60549776701191E-07  9.54010487845097E+00
 cg2d: Sum(rhs),rhsMax =   3.60527081966211E-07  9.54070439538359E+00
 cg2d: Sum(rhs),rhsMax =   3.60504891716573E-07  9.54129414489248E+00
 cg2d: Sum(rhs),rhsMax =   3.60483177530568E-07  9.54187316644988E+00
 cg2d: Sum(rhs),rhsMax =   3.60461847037641E-07  9.54243931610470E+00
 cg2d: Sum(rhs),rhsMax =   3.60441163138603E-07  9.54298949797406E+00
 cg2d: Sum(rhs),rhsMax =   3.60421886114182E-07  9.54351996498613E+00
 cg2d: Sum(rhs),rhsMax =   3.60402523824632E-07  9.54402657721418E+00
 cg2d: Sum(rhs),rhsMax =   3.60384753150811E-07  9.54450500531714E+00
 cg2d: Sum(rhs),rhsMax =   3.60367963025965E-07  9.54495093320083E+00
 cg2d: Sum(rhs),rhsMax =   3.60549776701191E-07  9.54010487845097E+00
 cg2d: Sum(rhs),rhsMax =   3.60527081966211E-07  9.54070439538359E+00
 cg2d: Sum(rhs),rhsMax =   3.60504891716573E-07  9.54129414489248E+00
 cg2d: Sum(rhs),rhsMax =   3.60483177530568E-07  9.54187316644988E+00
 cg2d: Sum(rhs),rhsMax =   3.60461847037641E-07  9.54243931610470E+00
 cg2d: Sum(rhs),rhsMax =   3.60441163138603E-07  9.54298949797406E+00
 cg2d: Sum(rhs),rhsMax =   3.60421886114182E-07  9.54351996498613E+00
 cg2d: Sum(rhs),rhsMax =   3.60402523824632E-07  9.54402657721418E+00
 cg2d: Sum(rhs),rhsMax =   3.60384753150811E-07  9.54450500531714E+00
 cg2d: Sum(rhs),rhsMax =  -5.25100645631937E-07  9.54495116447143E+00
 cg2d: Sum(rhs),rhsMax =   2.45670150889055E-12  4.80933087494686E-02
 cg2d: Sum(rhs),rhsMax =   3.60549776701191E-07  9.54010487845097E+00
 cg2d: Sum(rhs),rhsMax =   3.60527081966211E-07  9.54070439538359E+00
 cg2d: Sum(rhs),rhsMax =   3.60504891716573E-07  9.54129414489248E+00
 cg2d: Sum(rhs),rhsMax =   3.60483177530568E-07  9.54187316644988E+00
 cg2d: Sum(rhs),rhsMax =   3.60461847037641E-07  9.54243931610470E+00
 cg2d: Sum(rhs),rhsMax =   3.60441163138603E-07  9.54298949797406E+00
 cg2d: Sum(rhs),rhsMax =   3.60421886114182E-07  9.54351996498613E+00
 cg2d: Sum(rhs),rhsMax =   3.60402523824632E-07  9.54402657721418E+00
 cg2d: Sum(rhs),rhsMax =   2.35197751408123E-06  9.54450466706440E+00
 cg2d: Sum(rhs),rhsMax =   2.39852582240019E-12  4.82639464479216E-02
 cg2d: Sum(rhs),rhsMax =   3.60549776701191E-07  9.54010487845097E+00
 cg2d: Sum(rhs),rhsMax =   3.60527081966211E-07  9.54070439538359E+00
 cg2d: Sum(rhs),rhsMax =   3.60504891716573E-07  9.54129414489248E+00
 cg2d: Sum(rhs),rhsMax =   3.60483177530568E-07  9.54187316644988E+00
 cg2d: Sum(rhs),rhsMax =   3.60461847037641E-07  9.54243931610470E+00
 cg2d: Sum(rhs),rhsMax =   3.60441163138603E-07  9.54298949797406E+00
 cg2d: Sum(rhs),rhsMax =   3.60421886114182E-07  9.54351996498613E+00
 cg2d: Sum(rhs),rhsMax =   1.37608068939699E-06  9.54402658139833E+00
 cg2d: Sum(rhs),rhsMax =   2.30038210702332E-12  4.82863018550132E-02
 cg2d: Sum(rhs),rhsMax =   3.60549776701191E-07  9.54010487845097E+00
 cg2d: Sum(rhs),rhsMax =   3.60527081966211E-07  9.54070439538359E+00
 cg2d: Sum(rhs),rhsMax =   3.60504891716573E-07  9.54129414489248E+00
 cg2d: Sum(rhs),rhsMax =   3.60483177530568E-07  9.54187316644988E+00
 cg2d: Sum(rhs),rhsMax =   3.60461847037641E-07  9.54243931610470E+00
 cg2d: Sum(rhs),rhsMax =   3.60441163138603E-07  9.54298949797406E+00
 cg2d: Sum(rhs),rhsMax =   4.34113836433880E-07  9.54352013741209E+00
 cg2d: Sum(rhs),rhsMax =   2.21112017584346E-12  4.81121224140874E-02
 cg2d: Sum(rhs),rhsMax =   3.60549776701191E-07  9.54010487845097E+00
 cg2d: Sum(rhs),rhsMax =   3.60527081966211E-07  9.54070439538359E+00
 cg2d: Sum(rhs),rhsMax =   3.60504891716573E-07  9.54129414489248E+00
 cg2d: Sum(rhs),rhsMax =   3.60483177530568E-07  9.54187316644988E+00
 cg2d: Sum(rhs),rhsMax =   3.60461847037641E-07  9.54243931610470E+00
 cg2d: Sum(rhs),rhsMax =   2.01063765814524E-06  9.54298952569689E+00
 cg2d: Sum(rhs),rhsMax =   2.18491891246231E-12  4.78074600076742E-02
 cg2d: Sum(rhs),rhsMax =   3.60549776701191E-07  9.54010487845097E+00
 cg2d: Sum(rhs),rhsMax =   3.60527081966211E-07  9.54070439538359E+00
 cg2d: Sum(rhs),rhsMax =   3.60504891716573E-07  9.54129414489248E+00
 cg2d: Sum(rhs),rhsMax =   3.60483177530568E-07  9.54187316644988E+00
 cg2d: Sum(rhs),rhsMax =   1.55224391562570E-06  9.54243916483446E+00
 cg2d: Sum(rhs),rhsMax =   2.17381668221606E-12  4.73887145003363E-02
 cg2d: Sum(rhs),rhsMax =   3.60549776701191E-07  9.54010487845097E+00
 cg2d: Sum(rhs),rhsMax =   3.60527081966211E-07  9.54070439538359E+00
 cg2d: Sum(rhs),rhsMax =   3.60504891716573E-07  9.54129414489248E+00
 cg2d: Sum(rhs),rhsMax =   1.53445015627085E-06  9.54187293215544E+00
 cg2d: Sum(rhs),rhsMax =   2.07256434237024E-12  4.86171566300511E-02
 cg2d: Sum(rhs),rhsMax =   3.60549776701191E-07  9.54010487845097E+00
 cg2d: Sum(rhs),rhsMax =   3.60527081966211E-07  9.54070439538359E+00
 cg2d: Sum(rhs),rhsMax =   6.67347109128968E-07  9.54129420021175E+00
 cg2d: Sum(rhs),rhsMax =   2.01261229904048E-12  4.83777498196299E-02
 cg2d: Sum(rhs),rhsMax =   3.60549776701191E-07  9.54010487845097E+00
 cg2d: Sum(rhs),rhsMax =   1.97146739822074E-07  9.54070419502108E+00
 cg2d: Sum(rhs),rhsMax =   1.87494464398696E-12  5.08924633211396E-02
 cg2d: Sum(rhs),rhsMax =   3.60549883282602E-07  9.54010487845709E+00
 cg2d: Sum(rhs),rhsMax =   1.70885527950304E-12  5.26604535852405E-02
 EXTERNAL_FIELDS_LOAD, it=   3600000 : Reading new data, i0,i1=   12    1 (prev=   12    5 )
 DIC_FIELDS_LOAD, it=   3600000 : Reading new data, i0,i1=   12    1 (prev=   12    0 )
 cg2d: Sum(rhs),rhsMax =   1.69318610687696E-07  8.73439699737069E+00
 cg2d: Sum(rhs),rhsMax =   1.69217777568065E-07  8.73957985685053E+00
 cg2d: Sum(rhs),rhsMax =   1.69116930237578E-07  8.74478996407667E+00
 cg2d: Sum(rhs),rhsMax =   1.69015713424869E-07  8.75002525197054E+00
 cg2d: Sum(rhs),rhsMax =   1.68913977915963E-07  8.75528319149979E+00
 cg2d: Sum(rhs),rhsMax =   1.68812391621032E-07  8.76056091159563E+00
 cg2d: Sum(rhs),rhsMax =   1.68710130310501E-07  8.76585531016545E+00
 cg2d: Sum(rhs),rhsMax =   1.68607783734842E-07  8.77116317961867E+00
 cg2d: Sum(rhs),rhsMax =   1.68505465580893E-07  8.77648131488675E+00
 cg2d: Sum(rhs),rhsMax =   1.68403296640918E-07  8.78180660701903E+00
 cg2d: Sum(rhs),rhsMax =   1.68301063752097E-07  8.78713610702002E+00
 cg2d: Sum(rhs),rhsMax =   1.68199015604387E-07  8.79246706727320E+00
 cg2d: Sum(rhs),rhsMax =   1.68096867980694E-07  8.79779694946195E+00
 cg2d: Sum(rhs),rhsMax =   1.67995075628369E-07  8.80312339652564E+00
 cg2d: Sum(rhs),rhsMax =   1.67893297486899E-07  8.80844419596376E+00
 cg2d: Sum(rhs),rhsMax =   1.67792002514489E-07  8.81375727000352E+00
 cg2d: Sum(rhs),rhsMax =   1.67690991759173E-07  8.81906074076855E+00
 cg2d: Sum(rhs),rhsMax =   1.67590364696935E-07  8.82435302858595E+00
 cg2d: Sum(rhs),rhsMax =   1.67489801583542E-07  8.82963296688162E+00
 cg2d: Sum(rhs),rhsMax =   1.67389771377202E-07  8.83489991268453E+00
 cg2d: Sum(rhs),rhsMax =   1.67290018282529E-07  8.84015381998810E+00
 cg2d: Sum(rhs),rhsMax =   1.67191025468583E-07  8.84539524558423E+00
 cg2d: Sum(rhs),rhsMax =   1.67091911862371E-07  8.85062527386172E+00
 cg2d: Sum(rhs),rhsMax =   1.66993110894964E-07  8.85584539161906E+00
 cg2d: Sum(rhs),rhsMax =   1.66895297581959E-07  8.86105731971219E+00
 cg2d: Sum(rhs),rhsMax =   1.66797214262715E-07  8.86626284368505E+00
 cg2d: Sum(rhs),rhsMax =   1.66699088310907E-07  8.87146368108963E+00
 cg2d: Sum(rhs),rhsMax =   1.66601175521919E-07  8.87666140941337E+00
 cg2d: Sum(rhs),rhsMax =   1.66503703269427E-07  8.88185744320308E+00
 cg2d: Sum(rhs),rhsMax =   1.66406401547192E-07  8.88705304968201E+00
 EXTERNAL_FIELDS_LOAD, it=   3600030 : Reading new data, i0,i1=    1    2 (prev=   12    1 )
 DIC_FIELDS_LOAD, it=   3600030 : Reading new data, i0,i1=    1    2 (prev=   12    1 )
 cg2d: Sum(rhs),rhsMax =   1.66308751659017E-07  8.89224939629417E+00
 cg2d: Sum(rhs),rhsMax =   1.66211989949261E-07  8.89742905273518E+00
 cg2d: Sum(rhs),rhsMax =   1.66115810884548E-07  8.90258194312370E+00
 cg2d: Sum(rhs),rhsMax =   1.66020008407486E-07  8.90769862985287E+00
 cg2d: Sum(rhs),rhsMax =   1.65925222006535E-07  8.91277064894441E+00
 cg2d: Sum(rhs),rhsMax =   1.65832325649262E-07  8.91779073567431E+00
 cg2d: Sum(rhs),rhsMax =   1.65739969304468E-07  8.92275296238945E+00
 cg2d: Sum(rhs),rhsMax =   1.65648664562923E-07  8.92765282308104E+00
 cg2d: Sum(rhs),rhsMax =   1.65559029596807E-07  8.93248727153984E+00
 cg2d: Sum(rhs),rhsMax =   1.65470908086718E-07  8.93725470683360E+00
 cg2d: Sum(rhs),rhsMax =   1.65383411854236E-07  8.94195490169141E+00
 cg2d: Sum(rhs),rhsMax =   1.65297855403423E-07  8.94658889014494E+00
 cg2d: Sum(rhs),rhsMax =   1.65213478453552E-07  8.95115882656284E+00
 cg2d: Sum(rhs),rhsMax =   1.65130131790647E-07  8.95566783046152E+00
 cg2d: Sum(rhs),rhsMax =   1.65047609357316E-07  8.96011984139981E+00
 cg2d: Sum(rhs),rhsMax =   1.64966841964542E-07  8.96451949805779E+00
 cg2d: Sum(rhs),rhsMax =   1.64886614584248E-07  8.96887204401274E+00
 cg2d: Sum(rhs),rhsMax =   1.64807353542074E-07  8.97318325974703E+00
 cg2d: Sum(rhs),rhsMax =   1.64728760410071E-07  8.97745941334167E+00
 cg2d: Sum(rhs),rhsMax =   1.64650550971146E-07  8.98170721084718E+00
 cg2d: Sum(rhs),rhsMax =   1.64573251026923E-07  8.98593374417503E+00
 cg2d: Sum(rhs),rhsMax =   1.64495830290434E-07  8.99014648706113E+00
 cg2d: Sum(rhs),rhsMax =   1.64419148518391E-07  8.99435313191228E+00
 cg2d: Sum(rhs),rhsMax =   1.64342466746348E-07  8.99856143301709E+00
 cg2d: Sum(rhs),rhsMax =   1.64265266278107E-07  9.00277891979376E+00
 cg2d: Sum(rhs),rhsMax =   1.64188094231577E-07  9.00701226475977E+00
 cg2d: Sum(rhs),rhsMax =   1.64110602440815E-07  9.01126800872608E+00
 cg2d: Sum(rhs),rhsMax =   1.64032670113556E-07  9.01555262481054E+00
 cg2d: Sum(rhs),rhsMax =   1.63954233300956E-07  9.01987189615712E+00
 cg2d: Sum(rhs),rhsMax =   1.63875164105320E-07  9.02423093235336E+00
 cg2d: Sum(rhs),rhsMax =   1.63795320418103E-07  9.02863410711437E+00
 cg2d: Sum(rhs),rhsMax =   1.63714346967936E-07  9.03308492807320E+00
 cg2d: Sum(rhs),rhsMax =   1.63633295358068E-07  9.03758589550099E+00
 cg2d: Sum(rhs),rhsMax =   1.63551085563540E-07  9.04213843256992E+00
 cg2d: Sum(rhs),rhsMax =   1.63468094172003E-07  9.04674278808053E+00
 cg2d: Sum(rhs),rhsMax =   1.63383937490380E-07  9.05139800068177E+00
 cg2d: Sum(rhs),rhsMax =   1.63299503697090E-07  9.05610191103194E+00
 cg2d: Sum(rhs),rhsMax =   1.63213783821448E-07  9.06085121060704E+00
 cg2d: Sum(rhs),rhsMax =   1.63127957364395E-07  9.06564152308058E+00
 cg2d: Sum(rhs),rhsMax =   1.63041192990931E-07  9.07046751690403E+00
 cg2d: Sum(rhs),rhsMax =   1.62954130189519E-07  9.07532304700718E+00
 cg2d: Sum(rhs),rhsMax =   1.62866854225285E-07  9.08020131376247E+00
 cg2d: Sum(rhs),rhsMax =   1.62779372203659E-07  9.08509502964907E+00
 cg2d: Sum(rhs),rhsMax =   1.62691954130878E-07  9.08999659239780E+00
 cg2d: Sum(rhs),rhsMax =   1.62604585796089E-07  9.09489817218861E+00
 cg2d: Sum(rhs),rhsMax =   1.62517501678394E-07  9.09979218349167E+00
 cg2d: Sum(rhs),rhsMax =   1.62430644934375E-07  9.10467101498796E+00
 cg2d: Sum(rhs),rhsMax =   1.62344292675698E-07  9.10952746457549E+00
 cg2d: Sum(rhs),rhsMax =   1.62258693592321E-07  9.11435477997425E+00
 cg2d: Sum(rhs),rhsMax =   1.62174011109073E-07  9.11914675387257E+00
 cg2d: Sum(rhs),rhsMax =   1.62089747846039E-07  9.12389782853965E+00
 cg2d: Sum(rhs),rhsMax =   1.62006273285442E-07  9.12860319621454E+00
 cg2d: Sum(rhs),rhsMax =   1.61924113228906E-07  9.13325897230795E+00
 cg2d: Sum(rhs),rhsMax =   1.61842727663952E-07  9.13786227569362E+00
 cg2d: Sum(rhs),rhsMax =   1.61762493178230E-07  9.14241138202085E+00
 cg2d: Sum(rhs),rhsMax =   1.61683040289518E-07  9.14690582567222E+00
 cg2d: Sum(rhs),rhsMax =   1.61604830850592E-07  9.15134644986131E+00
 cg2d: Sum(rhs),rhsMax =   1.61527417219531E-07  9.15573538211935E+00
 cg2d: Sum(rhs),rhsMax =   1.61451261249113E-07  9.16007592950651E+00
 cg2d: Sum(rhs),rhsMax =   1.61375858453994E-07  9.16437240256295E+00
 EXTERNAL_FIELDS_LOAD, it=   3600090 : Reading new data, i0,i1=    2    3 (prev=    1    2 )
 DIC_FIELDS_LOAD, it=   3600090 : Reading new data, i0,i1=    2    3 (prev=    1    2 )
 cg2d: Sum(rhs),rhsMax =   1.61301031198491E-07  9.16862988474514E+00
 cg2d: Sum(rhs),rhsMax =   1.61226488160082E-07  9.17287253571495E+00
 cg2d: Sum(rhs),rhsMax =   1.61152193811631E-07  9.17711746016568E+00
 cg2d: Sum(rhs),rhsMax =   1.61077544191812E-07  9.18138108877058E+00
 cg2d: Sum(rhs),rhsMax =   1.61002326137805E-07  9.18567861304476E+00
 cg2d: Sum(rhs),rhsMax =   1.60926205694523E-07  9.19002353014883E+00
 cg2d: Sum(rhs),rhsMax =   1.60849204178248E-07  9.19442728641192E+00
 cg2d: Sum(rhs),rhsMax =   1.60771165269580E-07  9.19889902438565E+00
 cg2d: Sum(rhs),rhsMax =   1.60691676853730E-07  9.20344543538162E+00
 cg2d: Sum(rhs),rhsMax =   1.60610625243862E-07  9.20807071616803E+00
 cg2d: Sum(rhs),rhsMax =   1.60529111781216E-07  9.21277660183589E+00
 cg2d: Sum(rhs),rhsMax =   1.60445615904337E-07  9.21756247694247E+00
 cg2d: Sum(rhs),rhsMax =   1.60361018686217E-07  9.22242554775714E+00
 cg2d: Sum(rhs),rhsMax =   1.60275249072583E-07  9.22736105179622E+00
 cg2d: Sum(rhs),rhsMax =   1.60188832865060E-07  9.23236249675336E+00
 cg2d: Sum(rhs),rhsMax =   1.60101009782920E-07  9.23742190581730E+00
 cg2d: Sum(rhs),rhsMax =   1.60012376682062E-07  9.24253005999046E+00
 cg2d: Sum(rhs),rhsMax =   1.59923374098980E-07  9.24767675774736E+00
 cg2d: Sum(rhs),rhsMax =   1.59833348334359E-07  9.25285099530738E+00
 cg2d: Sum(rhs),rhsMax =   1.59743947847346E-07  9.25804118480452E+00
 cg2d: Sum(rhs),rhsMax =   1.59654156561828E-07  9.26323537521839E+00
 cg2d: Sum(rhs),rhsMax =   1.59564649493404E-07  9.26842146305946E+00
 cg2d: Sum(rhs),rhsMax =   1.59475810335152E-07  9.27358734254206E+00
 cg2d: Sum(rhs),rhsMax =   1.59387511189379E-07  9.27872091717081E+00
 cg2d: Sum(rhs),rhsMax =   1.59299617052966E-07  9.28381136814303E+00
 cg2d: Sum(rhs),rhsMax =   1.59212980577195E-07  9.28884862895416E+00
 cg2d: Sum(rhs),rhsMax =   1.59127175436424E-07  9.29382345652557E+00
 cg2d: Sum(rhs),rhsMax =   1.59043672454118E-07  9.29872780684878E+00
 cg2d: Sum(rhs),rhsMax =   1.58960915541684E-07  9.30355510475018E+00
 cg2d: Sum(rhs),rhsMax =   1.58879650768995E-07  9.30830036704988E+00
 cg2d: Sum(rhs),rhsMax =   1.58800041560880E-07  9.31296021040285E+00
 cg2d: Sum(rhs),rhsMax =   1.58721938703366E-07  9.31753280098406E+00
 cg2d: Sum(rhs),rhsMax =   1.58645484304998E-07  9.32201775765958E+00
 cg2d: Sum(rhs),rhsMax =   1.58570394148683E-07  9.32641602969786E+00
 cg2d: Sum(rhs),rhsMax =   1.58496945346087E-07  9.33072978578710E+00
 cg2d: Sum(rhs),rhsMax =   1.58424988683237E-07  9.33496230239218E+00
 cg2d: Sum(rhs),rhsMax =   1.58354438895003E-07  9.33911784987238E+00
 cg2d: Sum(rhs),rhsMax =   1.58284855444890E-07  9.34320156451738E+00
 cg2d: Sum(rhs),rhsMax =   1.58217005719052E-07  9.34721929418330E+00
 cg2d: Sum(rhs),rhsMax =   1.58150037066207E-07  9.35117742178592E+00
 cg2d: Sum(rhs),rhsMax =   1.58083715007251E-07  9.35508267492027E+00
 cg2d: Sum(rhs),rhsMax =   1.58018764295775E-07  9.35894192419005E+00
 cg2d: Sum(rhs),rhsMax =   1.57953891744000E-07  9.36276197821802E+00
 cg2d: Sum(rhs),rhsMax =   1.57889999741201E-07  9.36654938518496E+00
 cg2d: Sum(rhs),rhsMax =   1.57826519853188E-07  9.37031025051024E+00
 cg2d: Sum(rhs),rhsMax =   1.57763658137355E-07  9.37405007348543E+00
 cg2d: Sum(rhs),rhsMax =   1.57700689840112E-07  9.37777361441556E+00
 cg2d: Sum(rhs),rhsMax =   1.57638105235947E-07  9.38148479575939E+00
 cg2d: Sum(rhs),rhsMax =   1.57575861692294E-07  9.38518664193280E+00
 cg2d: Sum(rhs),rhsMax =   1.57513689202915E-07  9.38888125563880E+00
 cg2d: Sum(rhs),rhsMax =   1.57451452764690E-07  9.39256983098558E+00
 cg2d: Sum(rhs),rhsMax =   1.57389870025781E-07  9.39625269423587E+00
 cg2d: Sum(rhs),rhsMax =   1.57327839644950E-07  9.39992937198207E+00
 cg2d: Sum(rhs),rhsMax =   1.57266605071982E-07  9.40359867449008E+00
 cg2d: Sum(rhs),rhsMax =   1.57205221285039E-07  9.40725878524180E+00
 cg2d: Sum(rhs),rhsMax =   1.57144384616004E-07  9.41090734419932E+00
 cg2d: Sum(rhs),rhsMax =   1.57083441365558E-07  9.41454153230469E+00
 cg2d: Sum(rhs),rhsMax =   1.57022817859342E-07  9.41815815729745E+00
 cg2d: Sum(rhs),rhsMax =   1.56962848052444E-07  9.42175373864234E+00
 cg2d: Sum(rhs),rhsMax =   1.56903354309179E-07  9.42532458834380E+00
 EXTERNAL_FIELDS_LOAD, it=   3600150 : Reading new data, i0,i1=    3    4 (prev=    2    3 )
 DIC_FIELDS_LOAD, it=   3600150 : Reading new data, i0,i1=    3    4 (prev=    2    3 )
 cg2d: Sum(rhs),rhsMax =   1.56844386367538E-07  9.42886688985512E+00
 cg2d: Sum(rhs),rhsMax =   1.56786050808932E-07  9.43235379724390E+00
 cg2d: Sum(rhs),rhsMax =   1.56729463185457E-07  9.43576817325861E+00
 cg2d: Sum(rhs),rhsMax =   1.56674040852067E-07  9.43909408079935E+00
 cg2d: Sum(rhs),rhsMax =   1.56620934887997E-07  9.44231724780375E+00
 cg2d: Sum(rhs),rhsMax =   1.56569370801662E-07  9.44542544012602E+00
 cg2d: Sum(rhs),rhsMax =   1.56519689653578E-07  9.44840873884622E+00
 cg2d: Sum(rhs),rhsMax =   1.56472822254727E-07  9.45125971609770E+00
 cg2d: Sum(rhs),rhsMax =   1.56427617525878E-07  9.45397350936240E+00
 cg2d: Sum(rhs),rhsMax =   1.56384757588057E-07  9.45654781865251E+00
 cg2d: Sum(rhs),rhsMax =   1.56344832191735E-07  9.45898283383023E+00
 cg2d: Sum(rhs),rhsMax =   1.56306633414260E-07  9.46128109723642E+00
 cg2d: Sum(rhs),rhsMax =   1.56271084961190E-07  9.46344731860571E+00
 cg2d: Sum(rhs),rhsMax =   1.56237142334703E-07  9.46548815348608E+00
 cg2d: Sum(rhs),rhsMax =   1.56205267387577E-07  9.46741194668024E+00
 cg2d: Sum(rhs),rhsMax =   1.56175239851564E-07  9.46922844872215E+00
 cg2d: Sum(rhs),rhsMax =   1.56147137886364E-07  9.47094849760508E+00
 cg2d: Sum(rhs),rhsMax =   1.56120208316679E-07  9.47258374009707E+00
 cg2d: Sum(rhs),rhsMax =   1.56094635883619E-07  9.47414632630027E+00
 cg2d: Sum(rhs),rhsMax =   1.56069631884748E-07  9.47564860958206E+00
 cg2d: Sum(rhs),rhsMax =   1.56045885546519E-07  9.47710285869683E+00
 cg2d: Sum(rhs),rhsMax =   1.56022359476538E-07  9.47852099456481E+00
 cg2d: Sum(rhs),rhsMax =   1.55999494211301E-07  9.47991435650409E+00
 cg2d: Sum(rhs),rhsMax =   1.55977154747688E-07  9.48129350219173E+00
 cg2d: Sum(rhs),rhsMax =   1.55954339220443E-07  9.48266804354933E+00
 cg2d: Sum(rhs),rhsMax =   1.55931793699438E-07  9.48404652431056E+00
 cg2d: Sum(rhs),rhsMax =   1.55909042121039E-07  9.48543632689988E+00
 cg2d: Sum(rhs),rhsMax =   1.55885821584434E-07  9.48684360539340E+00
 cg2d: Sum(rhs),rhsMax =   1.55862714734667E-07  9.48827325855926E+00
 cg2d: Sum(rhs),rhsMax =   1.55838826287891E-07  9.48972893204264E+00
 cg2d: Sum(rhs),rhsMax =   1.55814433355772E-07  9.49121303094114E+00
 cg2d: Sum(rhs),rhsMax =   1.55789983580235E-07  9.49272675313569E+00
 cg2d: Sum(rhs),rhsMax =   1.55764709575124E-07  9.49427013125867E+00
 cg2d: Sum(rhs),rhsMax =   1.55739108720354E-07  9.49584209100241E+00
 cg2d: Sum(rhs),rhsMax =   1.55712911009687E-07  9.49744052944898E+00
 cg2d: Sum(rhs),rhsMax =   1.55686521452481E-07  9.49906241013908E+00
 cg2d: Sum(rhs),rhsMax =   1.55659733991342E-07  9.50070387273709E+00
 cg2d: Sum(rhs),rhsMax =   1.55632626785973E-07  9.50236035485632E+00
 cg2d: Sum(rhs),rhsMax =   1.55605491158894E-07  9.50402672184669E+00
 cg2d: Sum(rhs),rhsMax =   1.55578298688397E-07  9.50569741335586E+00
 cg2d: Sum(rhs),rhsMax =   1.55551077796190E-07  9.50736658442417E+00
 cg2d: Sum(rhs),rhsMax =   1.55523885325692E-07  9.50902827319058E+00
 cg2d: Sum(rhs),rhsMax =   1.55497183129683E-07  9.51067651838719E+00
 cg2d: Sum(rhs),rhsMax =   1.55470786467049E-07  9.51230545785063E+00
 cg2d: Sum(rhs),rhsMax =   1.55444702443219E-07  9.51390942883206E+00
 cg2d: Sum(rhs),rhsMax =   1.55418959479903E-07  9.51548308991335E+00
 cg2d: Sum(rhs),rhsMax =   1.55394317857827E-07  9.51702152785329E+00
 cg2d: Sum(rhs),rhsMax =   1.55369711762887E-07  9.51852032989996E+00
 cg2d: Sum(rhs),rhsMax =   1.55346036478932E-07  9.51997562350372E+00
 cg2d: Sum(rhs),rhsMax =   1.55323576223054E-07  9.52138408524577E+00
 cg2d: Sum(rhs),rhsMax =   1.55301350446280E-07  9.52274293287698E+00
 cg2d: Sum(rhs),rhsMax =   1.55280744706943E-07  9.52404992562530E+00
 cg2d: Sum(rhs),rhsMax =   1.55260174494742E-07  9.52530334700116E+00
 cg2d: Sum(rhs),rhsMax =   1.55241302479681E-07  9.52650198435958E+00
 cg2d: Sum(rhs),rhsMax =   1.55222487308038E-07  9.52764509643312E+00
 cg2d: Sum(rhs),rhsMax =   1.55204908480755E-07  9.52873236598035E+00
 cg2d: Sum(rhs),rhsMax =   1.55188487838132E-07  9.52976385013957E+00
 cg2d: Sum(rhs),rhsMax =   1.55173047744483E-07  9.53073993449898E+00
 cg2d: Sum(rhs),rhsMax =   1.55157991343913E-07  9.53166115429964E+00
 cg2d: Sum(rhs),rhsMax =   1.55143979441164E-07  9.53252820084563E+00
 EXTERNAL_FIELDS_LOAD, it=   3600210 : Reading new data, i0,i1=    4    5 (prev=    3    4 )
 DIC_FIELDS_LOAD, it=   3600210 : Reading new data, i0,i1=    4    5 (prev=    3    4 )
 cg2d: Sum(rhs),rhsMax =   7.22799029517773E-08  9.53334162807473E+00
 cg2d: Sum(rhs),rhsMax =   7.22740267633526E-08  9.53411524339373E+00
 cg2d: Sum(rhs),rhsMax =   7.22684774245863E-08  9.53485630924788E+00
 cg2d: Sum(rhs),rhsMax =   7.22634965200086E-08  9.53557134460639E+00
 cg2d: Sum(rhs),rhsMax =   7.22585227208583E-08  9.53626437580923E+00
 cg2d: Sum(rhs),rhsMax =   7.22532433883316E-08  9.53693907997119E+00
 cg2d: Sum(rhs),rhsMax =   7.22485467008482E-08  9.53759813841140E+00
 cg2d: Sum(rhs),rhsMax =   7.22440063327667E-08  9.53824335597084E+00
 cg2d: Sum(rhs),rhsMax =   7.22390964824626E-08  9.53887588133280E+00
 cg2d: Sum(rhs),rhsMax =   7.22345134818170E-08  9.53949655853350E+00
 EXTERNAL_FIELDS_LOAD, it=   3600210 : Reading new data, i0,i1=    4    5 (prev=    3    5 )
 DIC_FIELDS_LOAD, it=   3600210 : Reading new data, i0,i1=    4    5 (prev=    3    4 )
 cg2d: Sum(rhs),rhsMax =   7.22799029517773E-08  9.53334162807473E+00
 cg2d: Sum(rhs),rhsMax =   7.22740267633526E-08  9.53411524339373E+00
 cg2d: Sum(rhs),rhsMax =   7.22684774245863E-08  9.53485630924788E+00
 cg2d: Sum(rhs),rhsMax =   7.22634965200086E-08  9.53557134460639E+00
 cg2d: Sum(rhs),rhsMax =   7.22585227208583E-08  9.53626437580923E+00
 cg2d: Sum(rhs),rhsMax =   7.22532433883316E-08  9.53693907997119E+00
 cg2d: Sum(rhs),rhsMax =   7.22485467008482E-08  9.53759813841140E+00
 cg2d: Sum(rhs),rhsMax =   7.22440063327667E-08  9.53824335597084E+00
 cg2d: Sum(rhs),rhsMax =   7.22390964824626E-08  9.53887588133280E+00
 cg2d: Sum(rhs),rhsMax =  -1.29221177758154E-07  9.53949630601224E+00
 cg2d: Sum(rhs),rhsMax =   1.67821312402339E-12  5.32396638144852E-02
 EXTERNAL_FIELDS_LOAD, it=   3600210 : Reading new data, i0,i1=    4    5 (prev=    3    5 )
 DIC_FIELDS_LOAD, it=   3600210 : Reading new data, i0,i1=    4    5 (prev=    3    4 )
 cg2d: Sum(rhs),rhsMax =   7.22799029517773E-08  9.53334162807473E+00
 cg2d: Sum(rhs),rhsMax =   7.22740267633526E-08  9.53411524339373E+00
 cg2d: Sum(rhs),rhsMax =   7.22684774245863E-08  9.53485630924788E+00
 cg2d: Sum(rhs),rhsMax =   7.22634965200086E-08  9.53557134460639E+00
 cg2d: Sum(rhs),rhsMax =   7.22585227208583E-08  9.53626437580923E+00
 cg2d: Sum(rhs),rhsMax =   7.22532433883316E-08  9.53693907997119E+00
 cg2d: Sum(rhs),rhsMax =   7.22485467008482E-08  9.53759813841140E+00
 cg2d: Sum(rhs),rhsMax =   7.22440063327667E-08  9.53824335597084E+00
 cg2d: Sum(rhs),rhsMax =  -3.83637534184800E-07  9.53887573883918E+00
 cg2d: Sum(rhs),rhsMax =   1.54498636106837E-12  5.33394869282317E-02
 EXTERNAL_FIELDS_LOAD, it=   3600210 : Reading new data, i0,i1=    4    5 (prev=    3    5 )
 DIC_FIELDS_LOAD, it=   3600210 : Reading new data, i0,i1=    4    5 (prev=    3    4 )
 cg2d: Sum(rhs),rhsMax =   7.22799029517773E-08  9.53334162807473E+00
 cg2d: Sum(rhs),rhsMax =   7.22740267633526E-08  9.53411524339373E+00
 cg2d: Sum(rhs),rhsMax =   7.22684774245863E-08  9.53485630924788E+00
 cg2d: Sum(rhs),rhsMax =   7.22634965200086E-08  9.53557134460639E+00
 cg2d: Sum(rhs),rhsMax =   7.22585227208583E-08  9.53626437580923E+00
 cg2d: Sum(rhs),rhsMax =   7.22532433883316E-08  9.53693907997119E+00
 cg2d: Sum(rhs),rhsMax =   7.22485467008482E-08  9.53759813841140E+00
 cg2d: Sum(rhs),rhsMax =   5.97764092447051E-07  9.53824329344313E+00
 cg2d: Sum(rhs),rhsMax =   1.49436019114546E-12  5.34756922645424E-02
 EXTERNAL_FIELDS_LOAD, it=   3600210 : Reading new data, i0,i1=    4    5 (prev=    3    5 )
 DIC_FIELDS_LOAD, it=   3600210 : Reading new data, i0,i1=    4    5 (prev=    3    4 )
 cg2d: Sum(rhs),rhsMax =   7.22799029517773E-08  9.53334162807473E+00
 cg2d: Sum(rhs),rhsMax =   7.22740267633526E-08  9.53411524339373E+00
 cg2d: Sum(rhs),rhsMax =   7.22684774245863E-08  9.53485630924788E+00
 cg2d: Sum(rhs),rhsMax =   7.22634965200086E-08  9.53557134460639E+00
 cg2d: Sum(rhs),rhsMax =   7.22585227208583E-08  9.53626437580923E+00
 cg2d: Sum(rhs),rhsMax =   7.22532433883316E-08  9.53693907997119E+00
 cg2d: Sum(rhs),rhsMax =  -8.10825028452200E-07  9.53759847117293E+00
 cg2d: Sum(rhs),rhsMax =   1.44106948596345E-12  5.37173855683196E-02
 EXTERNAL_FIELDS_LOAD, it=   3600210 : Reading new data, i0,i1=    4    5 (prev=    3    5 )
 DIC_FIELDS_LOAD, it=   3600210 : Reading new data, i0,i1=    4    5 (prev=    3    4 )
 cg2d: Sum(rhs),rhsMax =   7.22799029517773E-08  9.53334162807473E+00
 cg2d: Sum(rhs),rhsMax =   7.22740267633526E-08  9.53411524339373E+00
 cg2d: Sum(rhs),rhsMax =   7.22684774245863E-08  9.53485630924788E+00
 cg2d: Sum(rhs),rhsMax =   7.22634965200086E-08  9.53557134460639E+00
 cg2d: Sum(rhs),rhsMax =   7.22585227208583E-08  9.53626437580923E+00
 cg2d: Sum(rhs),rhsMax =  -7.13550022624077E-07  9.53693881999044E+00
 cg2d: Sum(rhs),rhsMax =   1.39088740525040E-12  5.39034981431693E-02
 EXTERNAL_FIELDS_LOAD, it=   3600210 : Reading new data, i0,i1=    4    5 (prev=    3    5 )
 DIC_FIELDS_LOAD, it=   3600210 : Reading new data, i0,i1=    4    5 (prev=    3    4 )
 cg2d: Sum(rhs),rhsMax =   7.22799029517773E-08  9.53334162807473E+00
 cg2d: Sum(rhs),rhsMax =   7.22740267633526E-08  9.53411524339373E+00
 cg2d: Sum(rhs),rhsMax =   7.22684774245863E-08  9.53485630924788E+00
 cg2d: Sum(rhs),rhsMax =   7.22634965200086E-08  9.53557134460639E+00
 cg2d: Sum(rhs),rhsMax =   1.40151293237523E-06  9.53626438124290E+00
 cg2d: Sum(rhs),rhsMax =   1.32116539930394E-12  5.38434765078696E-02
 EXTERNAL_FIELDS_LOAD, it=   3600210 : Reading new data, i0,i1=    4    5 (prev=    3    5 )
 DIC_FIELDS_LOAD, it=   3600210 : Reading new data, i0,i1=    4    5 (prev=    3    4 )
 cg2d: Sum(rhs),rhsMax =   7.22799029517773E-08  9.53334162807473E+00
 cg2d: Sum(rhs),rhsMax =   7.22740267633526E-08  9.53411524339373E+00
 cg2d: Sum(rhs),rhsMax =   7.22684774245863E-08  9.53485630924788E+00
 cg2d: Sum(rhs),rhsMax =  -4.50022483278190E-07  9.53557146123288E+00
 cg2d: Sum(rhs),rhsMax =   1.29274368987353E-12  5.36408402569211E-02
 EXTERNAL_FIELDS_LOAD, it=   3600210 : Reading new data, i0,i1=    4    5 (prev=    3    5 )
 DIC_FIELDS_LOAD, it=   3600210 : Reading new data, i0,i1=    4    5 (prev=    3    4 )
 cg2d: Sum(rhs),rhsMax =   7.22799029517773E-08  9.53334162807473E+00
 cg2d: Sum(rhs),rhsMax =   7.22740267633526E-08  9.53411524339373E+00
 cg2d: Sum(rhs),rhsMax =  -8.33542266320819E-07  9.53485647448208E+00
 cg2d: Sum(rhs),rhsMax =   1.25233157177718E-12  5.29613503556623E-02
 EXTERNAL_FIELDS_LOAD, it=   3600210 : Reading new data, i0,i1=    4    5 (prev=    3    5 )
 DIC_FIELDS_LOAD, it=   3600210 : Reading new data, i0,i1=    4    5 (prev=    3    4 )
 cg2d: Sum(rhs),rhsMax =   7.22799029517773E-08  9.53334162807473E+00
 cg2d: Sum(rhs),rhsMax =   7.94664316572380E-08  9.53411495056391E+00
 cg2d: Sum(rhs),rhsMax =   1.20081722343457E-12  5.31001833925023E-02
 EXTERNAL_FIELDS_LOAD, it=   3600210 : Reading new data, i0,i1=    4    5 (prev=    3    5 )
 DIC_FIELDS_LOAD, it=   3600210 : Reading new data, i0,i1=    4    5 (prev=    3    4 )
 cg2d: Sum(rhs),rhsMax =   7.22797111052387E-08  9.53334162797949E+00
 cg2d: Sum(rhs),rhsMax =   1.16129328375791E-12  5.19960581946159E-02
 EXTERNAL_FIELDS_LOAD, it=   3600000 : Reading new data, i0,i1=   12    1 (prev=   12    5 )
 DIC_FIELDS_LOAD, it=   3600000 : Reading new data, i0,i1=   12    1 (prev=   12    0 )
 cg2d: Sum(rhs),rhsMax =   1.69318610687696E-07  8.73439699737069E+00
 cg2d: Sum(rhs),rhsMax =   1.69217777568065E-07  8.73957985685053E+00
 cg2d: Sum(rhs),rhsMax =   1.69116930237578E-07  8.74478996407667E+00
 cg2d: Sum(rhs),rhsMax =   1.69015713424869E-07  8.75002525197054E+00
 cg2d: Sum(rhs),rhsMax =   1.68913977915963E-07  8.75528319149979E+00
 cg2d: Sum(rhs),rhsMax =   1.68812391621032E-07  8.76056091159563E+00
 cg2d: Sum(rhs),rhsMax =   1.68710130310501E-07  8.76585531016545E+00
 cg2d: Sum(rhs),rhsMax =   1.68607783734842E-07  8.77116317961867E+00
 cg2d: Sum(rhs),rhsMax =   1.68505465580893E-07  8.77648131488675E+00
 cg2d: Sum(rhs),rhsMax =   1.68403296640918E-07  8.78180660701903E+00
 cg2d: Sum(rhs),rhsMax =   1.68301063752097E-07  8.78713610702002E+00
 cg2d: Sum(rhs),rhsMax =   1.68199015604387E-07  8.79246706727320E+00
 cg2d: Sum(rhs),rhsMax =   1.68096867980694E-07  8.79779694946195E+00
 cg2d: Sum(rhs),rhsMax =   1.67995075628369E-07  8.80312339652564E+00
 cg2d: Sum(rhs),rhsMax =   1.67893297486899E-07  8.80844419596376E+00
 cg2d: Sum(rhs),rhsMax =   1.67792002514489E-07  8.81375727000352E+00
 cg2d: Sum(rhs),rhsMax =   1.67690991759173E-07  8.81906074076855E+00
 cg2d: Sum(rhs),rhsMax =   1.67590364696935E-07  8.82435302858595E+00
 cg2d: Sum(rhs),rhsMax =   1.67489801583542E-07  8.82963296688162E+00
 cg2d: Sum(rhs),rhsMax =   1.67389771377202E-07  8.83489991268453E+00
 cg2d: Sum(rhs),rhsMax =   1.67290018282529E-07  8.84015381998810E+00
 cg2d: Sum(rhs),rhsMax =   1.67191025468583E-07  8.84539524558423E+00
 cg2d: Sum(rhs),rhsMax =   1.67091911862371E-07  8.85062527386172E+00
 cg2d: Sum(rhs),rhsMax =   1.66993110894964E-07  8.85584539161906E+00
 cg2d: Sum(rhs),rhsMax =   1.66895297581959E-07  8.86105731971219E+00
 cg2d: Sum(rhs),rhsMax =   1.66797214262715E-07  8.86626284368505E+00
 cg2d: Sum(rhs),rhsMax =   1.66699088310907E-07  8.87146368108963E+00
 cg2d: Sum(rhs),rhsMax =   1.66601175521919E-07  8.87666140941337E+00
 cg2d: Sum(rhs),rhsMax =   1.66503703269427E-07  8.88185744320308E+00
 cg2d: Sum(rhs),rhsMax =   1.66406401547192E-07  8.88705304968201E+00
 EXTERNAL_FIELDS_LOAD, it=   3600030 : Reading new data, i0,i1=    1    2 (prev=   12    1 )
 DIC_FIELDS_LOAD, it=   3600030 : Reading new data, i0,i1=    1    2 (prev=   12    1 )
 cg2d: Sum(rhs),rhsMax =   1.66308751659017E-07  8.89224939629417E+00
 cg2d: Sum(rhs),rhsMax =   1.66211989949261E-07  8.89742905273518E+00
 cg2d: Sum(rhs),rhsMax =   1.66115810884548E-07  8.90258194312370E+00
 cg2d: Sum(rhs),rhsMax =   1.66020008407486E-07  8.90769862985287E+00
 cg2d: Sum(rhs),rhsMax =   1.65925222006535E-07  8.91277064894441E+00
 cg2d: Sum(rhs),rhsMax =   1.65832325649262E-07  8.91779073567431E+00
 cg2d: Sum(rhs),rhsMax =   1.65739969304468E-07  8.92275296238945E+00
 cg2d: Sum(rhs),rhsMax =   1.65648664562923E-07  8.92765282308104E+00
 cg2d: Sum(rhs),rhsMax =   1.65559029596807E-07  8.93248727153984E+00
 cg2d: Sum(rhs),rhsMax =   1.65470908086718E-07  8.93725470683360E+00
 cg2d: Sum(rhs),rhsMax =   1.65383411854236E-07  8.94195490169141E+00
 cg2d: Sum(rhs),rhsMax =   1.65297855403423E-07  8.94658889014494E+00
 cg2d: Sum(rhs),rhsMax =   1.65213478453552E-07  8.95115882656284E+00
 cg2d: Sum(rhs),rhsMax =   1.65130131790647E-07  8.95566783046152E+00
 cg2d: Sum(rhs),rhsMax =   1.65047609357316E-07  8.96011984139981E+00
 cg2d: Sum(rhs),rhsMax =   1.64966841964542E-07  8.96451949805779E+00
 cg2d: Sum(rhs),rhsMax =   1.64886614584248E-07  8.96887204401274E+00
 cg2d: Sum(rhs),rhsMax =   1.64807353542074E-07  8.97318325974703E+00
 cg2d: Sum(rhs),rhsMax =   1.64728760410071E-07  8.97745941334167E+00
 cg2d: Sum(rhs),rhsMax =   1.64650550971146E-07  8.98170721084718E+00
 cg2d: Sum(rhs),rhsMax =   1.64573251026923E-07  8.98593374417503E+00
 cg2d: Sum(rhs),rhsMax =   1.64495830290434E-07  8.99014648706113E+00
 cg2d: Sum(rhs),rhsMax =   1.64419148518391E-07  8.99435313191228E+00
 cg2d: Sum(rhs),rhsMax =   1.64342466746348E-07  8.99856143301709E+00
 cg2d: Sum(rhs),rhsMax =   1.64265266278107E-07  9.00277891979376E+00
 cg2d: Sum(rhs),rhsMax =   1.64188094231577E-07  9.00701226475977E+00
 cg2d: Sum(rhs),rhsMax =   1.64110602440815E-07  9.01126800872608E+00
 cg2d: Sum(rhs),rhsMax =   1.64032670113556E-07  9.01555262481054E+00
 cg2d: Sum(rhs),rhsMax =   1.63954233300956E-07  9.01987189615712E+00
 cg2d: Sum(rhs),rhsMax =   1.63875164105320E-07  9.02423093235336E+00
 cg2d: Sum(rhs),rhsMax =   1.63795320418103E-07  9.02863410711437E+00
 cg2d: Sum(rhs),rhsMax =   1.63714346967936E-07  9.03308492807320E+00
 cg2d: Sum(rhs),rhsMax =   1.63633295358068E-07  9.03758589550099E+00
 cg2d: Sum(rhs),rhsMax =   1.63551085563540E-07  9.04213843256992E+00
 cg2d: Sum(rhs),rhsMax =   1.63468094172003E-07  9.04674278808053E+00
 cg2d: Sum(rhs),rhsMax =   1.63383937490380E-07  9.05139800068177E+00
 cg2d: Sum(rhs),rhsMax =   1.63299503697090E-07  9.05610191103194E+00
 cg2d: Sum(rhs),rhsMax =   1.63213783821448E-07  9.06085121060704E+00
 cg2d: Sum(rhs),rhsMax =   1.63127957364395E-07  9.06564152308058E+00
 cg2d: Sum(rhs),rhsMax =   1.63041192990931E-07  9.07046751690403E+00
 cg2d: Sum(rhs),rhsMax =   1.62954130189519E-07  9.07532304700718E+00
 cg2d: Sum(rhs),rhsMax =   1.62866854225285E-07  9.08020131376247E+00
 cg2d: Sum(rhs),rhsMax =   1.62779372203659E-07  9.08509502964907E+00
 cg2d: Sum(rhs),rhsMax =   1.62691954130878E-07  9.08999659239780E+00
 cg2d: Sum(rhs),rhsMax =   1.62604585796089E-07  9.09489817218861E+00
 cg2d: Sum(rhs),rhsMax =   1.62517501678394E-07  9.09979218349167E+00
 cg2d: Sum(rhs),rhsMax =   1.62430644934375E-07  9.10467101498796E+00
 cg2d: Sum(rhs),rhsMax =   1.62344292675698E-07  9.10952746457549E+00
 cg2d: Sum(rhs),rhsMax =   1.62258693592321E-07  9.11435477997425E+00
 cg2d: Sum(rhs),rhsMax =   1.62174011109073E-07  9.11914675387257E+00
 cg2d: Sum(rhs),rhsMax =   1.62089747846039E-07  9.12389782853965E+00
 cg2d: Sum(rhs),rhsMax =   1.62006273285442E-07  9.12860319621454E+00
 cg2d: Sum(rhs),rhsMax =   1.61924113228906E-07  9.13325897230795E+00
 cg2d: Sum(rhs),rhsMax =   1.61842727663952E-07  9.13786227569362E+00
 cg2d: Sum(rhs),rhsMax =   1.61762493178230E-07  9.14241138202085E+00
 cg2d: Sum(rhs),rhsMax =   1.61683040289518E-07  9.14690582567222E+00
 cg2d: Sum(rhs),rhsMax =   1.61604830850592E-07  9.15134644986131E+00
 cg2d: Sum(rhs),rhsMax =   1.61527417219531E-07  9.15573538211935E+00
 cg2d: Sum(rhs),rhsMax =   1.61451261249113E-07  9.16007592950651E+00
 cg2d: Sum(rhs),rhsMax =   1.61375858453994E-07  9.16437240256295E+00
 EXTERNAL_FIELDS_LOAD, it=   3600090 : Reading new data, i0,i1=    2    3 (prev=    1    2 )
 DIC_FIELDS_LOAD, it=   3600090 : Reading new data, i0,i1=    2    3 (prev=    1    2 )
 cg2d: Sum(rhs),rhsMax =   1.61301031198491E-07  9.16862988474514E+00
 cg2d: Sum(rhs),rhsMax =   1.61226488160082E-07  9.17287253571495E+00
 cg2d: Sum(rhs),rhsMax =   1.61152193811631E-07  9.17711746016568E+00
 cg2d: Sum(rhs),rhsMax =   1.61077544191812E-07  9.18138108877058E+00
 cg2d: Sum(rhs),rhsMax =   1.61002326137805E-07  9.18567861304476E+00
 cg2d: Sum(rhs),rhsMax =   1.60926205694523E-07  9.19002353014883E+00
 cg2d: Sum(rhs),rhsMax =   1.60849204178248E-07  9.19442728641192E+00
 cg2d: Sum(rhs),rhsMax =   1.60771165269580E-07  9.19889902438565E+00
 cg2d: Sum(rhs),rhsMax =   1.60691676853730E-07  9.20344543538162E+00
 cg2d: Sum(rhs),rhsMax =   1.60610625243862E-07  9.20807071616803E+00
 cg2d: Sum(rhs),rhsMax =   1.60529111781216E-07  9.21277660183589E+00
 cg2d: Sum(rhs),rhsMax =   1.60445615904337E-07  9.21756247694247E+00
 cg2d: Sum(rhs),rhsMax =   1.60361018686217E-07  9.22242554775714E+00
 cg2d: Sum(rhs),rhsMax =   1.60275249072583E-07  9.22736105179622E+00
 cg2d: Sum(rhs),rhsMax =   1.60188832865060E-07  9.23236249675336E+00
 cg2d: Sum(rhs),rhsMax =   1.60101009782920E-07  9.23742190581730E+00
 cg2d: Sum(rhs),rhsMax =   1.60012376682062E-07  9.24253005999046E+00
 cg2d: Sum(rhs),rhsMax =   1.59923374098980E-07  9.24767675774736E+00
 cg2d: Sum(rhs),rhsMax =   1.59833348334359E-07  9.25285099530738E+00
 cg2d: Sum(rhs),rhsMax =   1.59743947847346E-07  9.25804118480452E+00
 cg2d: Sum(rhs),rhsMax =   1.59654156561828E-07  9.26323537521839E+00
 cg2d: Sum(rhs),rhsMax =   1.59564649493404E-07  9.26842146305946E+00
 cg2d: Sum(rhs),rhsMax =   1.59475810335152E-07  9.27358734254206E+00
 cg2d: Sum(rhs),rhsMax =   1.59387511189379E-07  9.27872091717081E+00
 cg2d: Sum(rhs),rhsMax =   1.59299617052966E-07  9.28381136814303E+00
 cg2d: Sum(rhs),rhsMax =   1.59212980577195E-07  9.28884862895416E+00
 cg2d: Sum(rhs),rhsMax =   1.59127175436424E-07  9.29382345652557E+00
 cg2d: Sum(rhs),rhsMax =   1.59043672454118E-07  9.29872780684878E+00
 cg2d: Sum(rhs),rhsMax =   1.58960915541684E-07  9.30355510475018E+00
 cg2d: Sum(rhs),rhsMax =   1.58879650768995E-07  9.30830036704988E+00
 cg2d: Sum(rhs),rhsMax =   1.58800041560880E-07  9.31296021040285E+00
 cg2d: Sum(rhs),rhsMax =   1.58721938703366E-07  9.31753280098406E+00
 cg2d: Sum(rhs),rhsMax =   1.58645484304998E-07  9.32201775765958E+00
 cg2d: Sum(rhs),rhsMax =   1.58570394148683E-07  9.32641602969786E+00
 cg2d: Sum(rhs),rhsMax =   1.58496945346087E-07  9.33072978578710E+00
 cg2d: Sum(rhs),rhsMax =   1.58424988683237E-07  9.33496230239218E+00
 cg2d: Sum(rhs),rhsMax =   1.58354438895003E-07  9.33911784987238E+00
 cg2d: Sum(rhs),rhsMax =   1.58284855444890E-07  9.34320156451738E+00
 cg2d: Sum(rhs),rhsMax =   1.58217005719052E-07  9.34721929418330E+00
 cg2d: Sum(rhs),rhsMax =   1.58150037066207E-07  9.35117742178592E+00
 cg2d: Sum(rhs),rhsMax =   1.58083715007251E-07  9.35508267492027E+00
 cg2d: Sum(rhs),rhsMax =   1.58018764295775E-07  9.35894192419005E+00
 cg2d: Sum(rhs),rhsMax =   1.57953891744000E-07  9.36276197821802E+00
 cg2d: Sum(rhs),rhsMax =   1.57889999741201E-07  9.36654938518496E+00
 cg2d: Sum(rhs),rhsMax =   1.57826519853188E-07  9.37031025051024E+00
 cg2d: Sum(rhs),rhsMax =   1.57763658137355E-07  9.37405007348543E+00
 cg2d: Sum(rhs),rhsMax =   1.57700689840112E-07  9.37777361441556E+00
 cg2d: Sum(rhs),rhsMax =   1.57638105235947E-07  9.38148479575939E+00
 cg2d: Sum(rhs),rhsMax =   1.57575861692294E-07  9.38518664193280E+00
 cg2d: Sum(rhs),rhsMax =   1.57513689202915E-07  9.38888125563880E+00
 cg2d: Sum(rhs),rhsMax =   1.57451452764690E-07  9.39256983098558E+00
 cg2d: Sum(rhs),rhsMax =   1.57389870025781E-07  9.39625269423587E+00
 cg2d: Sum(rhs),rhsMax =   1.57327839644950E-07  9.39992937198207E+00
 cg2d: Sum(rhs),rhsMax =   1.57266605071982E-07  9.40359867449008E+00
 cg2d: Sum(rhs),rhsMax =   1.57205221285039E-07  9.40725878524180E+00
 cg2d: Sum(rhs),rhsMax =   1.57144384616004E-07  9.41090734419932E+00
 cg2d: Sum(rhs),rhsMax =   1.57083441365558E-07  9.41454153230469E+00
 cg2d: Sum(rhs),rhsMax =   1.57022817859342E-07  9.41815815729745E+00
 cg2d: Sum(rhs),rhsMax =   1.56962848052444E-07  9.42175373864234E+00
 cg2d: Sum(rhs),rhsMax =   1.56903354309179E-07  9.42532458834380E+00
 EXTERNAL_FIELDS_LOAD, it=   3600150 : Reading new data, i0,i1=    3    4 (prev=    2    3 )
 DIC_FIELDS_LOAD, it=   3600150 : Reading new data, i0,i1=    3    4 (prev=    2    3 )
 cg2d: Sum(rhs),rhsMax =   1.56844386367538E-07  9.42886688985512E+00
 cg2d: Sum(rhs),rhsMax =   1.56786050808932E-07  9.43235379724390E+00
 cg2d: Sum(rhs),rhsMax =   1.56729463185457E-07  9.43576817325861E+00
 cg2d: Sum(rhs),rhsMax =   1.56674040852067E-07  9.43909408079935E+00
 cg2d: Sum(rhs),rhsMax =   1.56620934887997E-07  9.44231724780375E+00
 cg2d: Sum(rhs),rhsMax =   1.56569370801662E-07  9.44542544012602E+00
 cg2d: Sum(rhs),rhsMax =   1.56519689653578E-07  9.44840873884622E+00
 cg2d: Sum(rhs),rhsMax =   1.56472822254727E-07  9.45125971609770E+00
 cg2d: Sum(rhs),rhsMax =   1.56427617525878E-07  9.45397350936240E+00
 cg2d: Sum(rhs),rhsMax =   1.56384757588057E-07  9.45654781865251E+00
 cg2d: Sum(rhs),rhsMax =   1.56344832191735E-07  9.45898283383023E+00
 cg2d: Sum(rhs),rhsMax =   1.56306633414260E-07  9.46128109723642E+00
 cg2d: Sum(rhs),rhsMax =   1.56271084961190E-07  9.46344731860571E+00
 cg2d: Sum(rhs),rhsMax =   1.56237142334703E-07  9.46548815348608E+00
 cg2d: Sum(rhs),rhsMax =   1.56205267387577E-07  9.46741194668024E+00
 cg2d: Sum(rhs),rhsMax =   1.56175239851564E-07  9.46922844872215E+00
 cg2d: Sum(rhs),rhsMax =   1.56147137886364E-07  9.47094849760508E+00
 cg2d: Sum(rhs),rhsMax =   1.56120208316679E-07  9.47258374009707E+00
 cg2d: Sum(rhs),rhsMax =   1.56094635883619E-07  9.47414632630027E+00
 cg2d: Sum(rhs),rhsMax =   1.56069631884748E-07  9.47564860958206E+00
 cg2d: Sum(rhs),rhsMax =   1.56045885546519E-07  9.47710285869683E+00
 cg2d: Sum(rhs),rhsMax =   1.56022359476538E-07  9.47852099456481E+00
 cg2d: Sum(rhs),rhsMax =   1.55999494211301E-07  9.47991435650409E+00
 cg2d: Sum(rhs),rhsMax =   1.55977154747688E-07  9.48129350219173E+00
 cg2d: Sum(rhs),rhsMax =   1.55954339220443E-07  9.48266804354933E+00
 cg2d: Sum(rhs),rhsMax =   1.55931793699438E-07  9.48404652431056E+00
 cg2d: Sum(rhs),rhsMax =   1.55909042121039E-07  9.48543632689988E+00
 cg2d: Sum(rhs),rhsMax =   1.55885821584434E-07  9.48684360539340E+00
 cg2d: Sum(rhs),rhsMax =   1.55862714734667E-07  9.48827325855926E+00
 cg2d: Sum(rhs),rhsMax =   1.55838826287891E-07  9.48972893204264E+00
 cg2d: Sum(rhs),rhsMax =   1.55814433355772E-07  9.49121303094114E+00
 cg2d: Sum(rhs),rhsMax =   1.55789983580235E-07  9.49272675313569E+00
 cg2d: Sum(rhs),rhsMax =   1.55764709575124E-07  9.49427013125867E+00
 cg2d: Sum(rhs),rhsMax =   1.55739108720354E-07  9.49584209100241E+00
 cg2d: Sum(rhs),rhsMax =   1.55712911009687E-07  9.49744052944898E+00
 cg2d: Sum(rhs),rhsMax =   1.55686521452481E-07  9.49906241013908E+00
 cg2d: Sum(rhs),rhsMax =   1.55659733991342E-07  9.50070387273709E+00
 cg2d: Sum(rhs),rhsMax =   1.55632626785973E-07  9.50236035485632E+00
 cg2d: Sum(rhs),rhsMax =   1.55605491158894E-07  9.50402672184669E+00
 cg2d: Sum(rhs),rhsMax =   1.55578298688397E-07  9.50569741335586E+00
 cg2d: Sum(rhs),rhsMax =   1.55551077796190E-07  9.50736658442417E+00
 cg2d: Sum(rhs),rhsMax =   1.55523885325692E-07  9.50902827319058E+00
 cg2d: Sum(rhs),rhsMax =   1.55497183129683E-07  9.51067651838719E+00
 cg2d: Sum(rhs),rhsMax =   1.55470786467049E-07  9.51230545785063E+00
 cg2d: Sum(rhs),rhsMax =   1.55444702443219E-07  9.51390942883206E+00
 cg2d: Sum(rhs),rhsMax =   1.55418959479903E-07  9.51548308991335E+00
 cg2d: Sum(rhs),rhsMax =   1.55394317857827E-07  9.51702152785329E+00
 cg2d: Sum(rhs),rhsMax =   1.55369711762887E-07  9.51852032989996E+00
 cg2d: Sum(rhs),rhsMax =   1.55346036478932E-07  9.51997562350372E+00
 cg2d: Sum(rhs),rhsMax =   1.55323576223054E-07  9.52138408524577E+00
 cg2d: Sum(rhs),rhsMax =   3.83494480615809E-07  9.52274275772786E+00
 cg2d: Sum(rhs),rhsMax =   3.83442063878192E-07  9.52404974932016E+00
 cg2d: Sum(rhs),rhsMax =   3.83391814295919E-07  9.52530316034654E+00
 cg2d: Sum(rhs),rhsMax =   3.83343717658136E-07  9.52650177533563E+00
 cg2d: Sum(rhs),rhsMax =   3.83297965811380E-07  9.52764485294247E+00
 cg2d: Sum(rhs),rhsMax =   3.83254501912234E-07  9.52873207955158E+00
 cg2d: Sum(rhs),rhsMax =   3.83213141219585E-07  9.52976352006607E+00
 cg2d: Sum(rhs),rhsMax =   3.83174160845101E-07  9.53073957026492E+00
 cg2d: Sum(rhs),rhsMax =   3.83137390258526E-07  9.53166077436175E+00
 cg2d: Sum(rhs),rhsMax =   3.83102467083063E-07  9.53252782899471E+00
 cg2d: Sum(rhs),rhsMax =   3.83494480615809E-07  9.52274275772786E+00
 cg2d: Sum(rhs),rhsMax =   3.83442063878192E-07  9.52404974932016E+00
 cg2d: Sum(rhs),rhsMax =   3.83391814295919E-07  9.52530316034654E+00
 cg2d: Sum(rhs),rhsMax =   3.83343717658136E-07  9.52650177533563E+00
 cg2d: Sum(rhs),rhsMax =   3.83297965811380E-07  9.52764485294247E+00
 cg2d: Sum(rhs),rhsMax =   3.83254501912234E-07  9.52873207955158E+00
 cg2d: Sum(rhs),rhsMax =   3.83213141219585E-07  9.52976352006607E+00
 cg2d: Sum(rhs),rhsMax =   3.83174160845101E-07  9.53073957026492E+00
 cg2d: Sum(rhs),rhsMax =   3.83137390258526E-07  9.53166077436175E+00
 cg2d: Sum(rhs),rhsMax =   1.51927176972322E-06  9.53252785380616E+00
 cg2d: Sum(rhs),rhsMax =   1.09112718860160E-12  5.12188030548975E-02
 cg2d: Sum(rhs),rhsMax =   3.83494480615809E-07  9.52274275772786E+00
 cg2d: Sum(rhs),rhsMax =   3.83442063878192E-07  9.52404974932016E+00
 cg2d: Sum(rhs),rhsMax =   3.83391814295919E-07  9.52530316034654E+00
 cg2d: Sum(rhs),rhsMax =   3.83343717658136E-07  9.52650177533563E+00
 cg2d: Sum(rhs),rhsMax =   3.83297965811380E-07  9.52764485294247E+00
 cg2d: Sum(rhs),rhsMax =   3.83254501912234E-07  9.52873207955158E+00
 cg2d: Sum(rhs),rhsMax =   3.83213141219585E-07  9.52976352006607E+00
 cg2d: Sum(rhs),rhsMax =   3.83174160845101E-07  9.53073957026492E+00
 cg2d: Sum(rhs),rhsMax =   1.02771826249182E-06  9.53166092742597E+00
 cg2d: Sum(rhs),rhsMax =   1.09601216990995E-12  4.93589354572263E-02
 cg2d: Sum(rhs),rhsMax =   3.83494480615809E-07  9.52274275772786E+00
 cg2d: Sum(rhs),rhsMax =   3.83442063878192E-07  9.52404974932016E+00
 cg2d: Sum(rhs),rhsMax =   3.83391814295919E-07  9.52530316034654E+00
 cg2d: Sum(rhs),rhsMax =   3.83343717658136E-07  9.52650177533563E+00
 cg2d: Sum(rhs),rhsMax =   3.83297965811380E-07  9.52764485294247E+00
 cg2d: Sum(rhs),rhsMax =   3.83254501912234E-07  9.52873207955158E+00
 cg2d: Sum(rhs),rhsMax =   3.83213141219585E-07  9.52976352006607E+00
 cg2d: Sum(rhs),rhsMax =   2.39787759426235E-07  9.53073919821541E+00
 cg2d: Sum(rhs),rhsMax =   1.07824860151595E-12  4.84497454460274E-02
 cg2d: Sum(rhs),rhsMax =   3.83494480615809E-07  9.52274275772786E+00
 cg2d: Sum(rhs),rhsMax =   3.83442063878192E-07  9.52404974932016E+00
 cg2d: Sum(rhs),rhsMax =   3.83391814295919E-07  9.52530316034654E+00
 cg2d: Sum(rhs),rhsMax =   3.83343717658136E-07  9.52650177533563E+00
 cg2d: Sum(rhs),rhsMax =   3.83297965811380E-07  9.52764485294247E+00
 cg2d: Sum(rhs),rhsMax =   3.83254501912234E-07  9.52873207955158E+00
 cg2d: Sum(rhs),rhsMax =   1.47132023187169E-06  9.52976318218494E+00
 cg2d: Sum(rhs),rhsMax =   1.04227737551810E-12  4.62285202112328E-02
 cg2d: Sum(rhs),rhsMax =   3.83494480615809E-07  9.52274275772786E+00
 cg2d: Sum(rhs),rhsMax =   3.83442063878192E-07  9.52404974932016E+00
 cg2d: Sum(rhs),rhsMax =   3.83391814295919E-07  9.52530316034654E+00
 cg2d: Sum(rhs),rhsMax =   3.83343717658136E-07  9.52650177533563E+00
 cg2d: Sum(rhs),rhsMax =   3.83297965811380E-07  9.52764485294247E+00
 cg2d: Sum(rhs),rhsMax =   1.73745966947081E-07  9.52873192700503E+00
 cg2d: Sum(rhs),rhsMax =   9.34363697524532E-13  4.65604664149468E-02
 cg2d: Sum(rhs),rhsMax =   3.83494480615809E-07  9.52274275772786E+00
 cg2d: Sum(rhs),rhsMax =   3.83442063878192E-07  9.52404974932016E+00
 cg2d: Sum(rhs),rhsMax =   3.83391814295919E-07  9.52530316034654E+00
 cg2d: Sum(rhs),rhsMax =   3.83343717658136E-07  9.52650177533563E+00
 cg2d: Sum(rhs),rhsMax =  -4.53041735681836E-07  9.52764506204489E+00
 cg2d: Sum(rhs),rhsMax =   9.17044218340379E-13  4.57827932017925E-02
 cg2d: Sum(rhs),rhsMax =   3.83494480615809E-07  9.52274275772786E+00
 cg2d: Sum(rhs),rhsMax =   3.83442063878192E-07  9.52404974932016E+00
 cg2d: Sum(rhs),rhsMax =   3.83391814295919E-07  9.52530316034654E+00
 cg2d: Sum(rhs),rhsMax =  -1.27432539187566E-06  9.52650141524506E+00
 cg2d: Sum(rhs),rhsMax =   7.95363774841462E-13  4.50436221655962E-02
 cg2d: Sum(rhs),rhsMax =   3.83494480615809E-07  9.52274275772786E+00
 cg2d: Sum(rhs),rhsMax =   3.83442063878192E-07  9.52404974932016E+00
 cg2d: Sum(rhs),rhsMax =   1.04009620116585E-06  9.52530283954831E+00
 cg2d: Sum(rhs),rhsMax =   7.34079463882154E-13  4.52822753714434E-02
 cg2d: Sum(rhs),rhsMax =   3.83494480615809E-07  9.52274275772786E+00
 cg2d: Sum(rhs),rhsMax =   8.04491740780122E-07  9.52404961019340E+00
 cg2d: Sum(rhs),rhsMax =   6.56363852158393E-13  4.56850103654513E-02
 cg2d: Sum(rhs),rhsMax =   3.83494501932091E-07  9.52274275770251E+00
 cg2d: Sum(rhs),rhsMax =   5.62216939670179E-13  4.60335472909077E-02
 EXTERNAL_FIELDS_LOAD, it=   3600000 : Reading new data, i0,i1=   12    1 (prev=   12    4 )
 DIC_FIELDS_LOAD, it=   3600000 : Reading new data, i0,i1=   12    1 (prev=   12    0 )
 cg2d: Sum(rhs),rhsMax =   1.69318610687696E-07  8.73439699737069E+00
 cg2d: Sum(rhs),rhsMax =   1.69217777568065E-07  8.73957985685053E+00
 cg2d: Sum(rhs),rhsMax =   1.69116930237578E-07  8.74478996407667E+00
 cg2d: Sum(rhs),rhsMax =   1.69015713424869E-07  8.75002525197054E+00
 cg2d: Sum(rhs),rhsMax =   1.68913977915963E-07  8.75528319149979E+00
 cg2d: Sum(rhs),rhsMax =   1.68812391621032E-07  8.76056091159563E+00
 cg2d: Sum(rhs),rhsMax =   1.68710130310501E-07  8.76585531016545E+00
 cg2d: Sum(rhs),rhsMax =   1.68607783734842E-07  8.77116317961867E+00
 cg2d: Sum(rhs),rhsMax =   1.68505465580893E-07  8.77648131488675E+00
 cg2d: Sum(rhs),rhsMax =   1.68403296640918E-07  8.78180660701903E+00
 cg2d: Sum(rhs),rhsMax =   1.68301063752097E-07  8.78713610702002E+00
 cg2d: Sum(rhs),rhsMax =   1.68199015604387E-07  8.79246706727320E+00
 cg2d: Sum(rhs),rhsMax =   1.68096867980694E-07  8.79779694946195E+00
 cg2d: Sum(rhs),rhsMax =   1.67995075628369E-07  8.80312339652564E+00
 cg2d: Sum(rhs),rhsMax =   1.67893297486899E-07  8.80844419596376E+00
 cg2d: Sum(rhs),rhsMax =   1.67792002514489E-07  8.81375727000352E+00
 cg2d: Sum(rhs),rhsMax =   1.67690991759173E-07  8.81906074076855E+00
 cg2d: Sum(rhs),rhsMax =   1.67590364696935E-07  8.82435302858595E+00
 cg2d: Sum(rhs),rhsMax =   1.67489801583542E-07  8.82963296688162E+00
 cg2d: Sum(rhs),rhsMax =   1.67389771377202E-07  8.83489991268453E+00
 cg2d: Sum(rhs),rhsMax =   1.67290018282529E-07  8.84015381998810E+00
 cg2d: Sum(rhs),rhsMax =   1.67191025468583E-07  8.84539524558423E+00
 cg2d: Sum(rhs),rhsMax =   1.67091911862371E-07  8.85062527386172E+00
 cg2d: Sum(rhs),rhsMax =   1.66993110894964E-07  8.85584539161906E+00
 cg2d: Sum(rhs),rhsMax =   1.66895297581959E-07  8.86105731971219E+00
 cg2d: Sum(rhs),rhsMax =   1.66797214262715E-07  8.86626284368505E+00
 cg2d: Sum(rhs),rhsMax =   1.66699088310907E-07  8.87146368108963E+00
 cg2d: Sum(rhs),rhsMax =   1.66601175521919E-07  8.87666140941337E+00
 cg2d: Sum(rhs),rhsMax =   1.66503703269427E-07  8.88185744320308E+00
 cg2d: Sum(rhs),rhsMax =   1.66406401547192E-07  8.88705304968201E+00
 EXTERNAL_FIELDS_LOAD, it=   3600030 : Reading new data, i0,i1=    1    2 (prev=   12    1 )
 DIC_FIELDS_LOAD, it=   3600030 : Reading new data, i0,i1=    1    2 (prev=   12    1 )
 cg2d: Sum(rhs),rhsMax =   1.66308751659017E-07  8.89224939629417E+00
 cg2d: Sum(rhs),rhsMax =   1.66211989949261E-07  8.89742905273518E+00
 cg2d: Sum(rhs),rhsMax =   1.66115810884548E-07  8.90258194312370E+00
 cg2d: Sum(rhs),rhsMax =   1.66020008407486E-07  8.90769862985287E+00
 cg2d: Sum(rhs),rhsMax =   1.65925222006535E-07  8.91277064894441E+00
 cg2d: Sum(rhs),rhsMax =   1.65832325649262E-07  8.91779073567431E+00
 cg2d: Sum(rhs),rhsMax =   1.65739969304468E-07  8.92275296238945E+00
 cg2d: Sum(rhs),rhsMax =   1.65648664562923E-07  8.92765282308104E+00
 cg2d: Sum(rhs),rhsMax =   1.65559029596807E-07  8.93248727153984E+00
 cg2d: Sum(rhs),rhsMax =   1.65470908086718E-07  8.93725470683360E+00
 cg2d: Sum(rhs),rhsMax =   1.65383411854236E-07  8.94195490169141E+00
 cg2d: Sum(rhs),rhsMax =   1.65297855403423E-07  8.94658889014494E+00
 cg2d: Sum(rhs),rhsMax =   1.65213478453552E-07  8.95115882656284E+00
 cg2d: Sum(rhs),rhsMax =   1.65130131790647E-07  8.95566783046152E+00
 cg2d: Sum(rhs),rhsMax =   1.65047609357316E-07  8.96011984139981E+00
 cg2d: Sum(rhs),rhsMax =   1.64966841964542E-07  8.96451949805779E+00
 cg2d: Sum(rhs),rhsMax =   1.64886614584248E-07  8.96887204401274E+00
 cg2d: Sum(rhs),rhsMax =   1.64807353542074E-07  8.97318325974703E+00
 cg2d: Sum(rhs),rhsMax =   1.64728760410071E-07  8.97745941334167E+00
 cg2d: Sum(rhs),rhsMax =   1.64650550971146E-07  8.98170721084718E+00
 cg2d: Sum(rhs),rhsMax =   1.64573251026923E-07  8.98593374417503E+00
 cg2d: Sum(rhs),rhsMax =   1.64495830290434E-07  8.99014648706113E+00
 cg2d: Sum(rhs),rhsMax =   1.64419148518391E-07  8.99435313191228E+00
 cg2d: Sum(rhs),rhsMax =   1.64342466746348E-07  8.99856143301709E+00
 cg2d: Sum(rhs),rhsMax =   1.64265266278107E-07  9.00277891979376E+00
 cg2d: Sum(rhs),rhsMax =   1.64188094231577E-07  9.00701226475977E+00
 cg2d: Sum(rhs),rhsMax =   1.64110602440815E-07  9.01126800872608E+00
 cg2d: Sum(rhs),rhsMax =   1.64032670113556E-07  9.01555262481054E+00
 cg2d: Sum(rhs),rhsMax =   1.63954233300956E-07  9.01987189615712E+00
 cg2d: Sum(rhs),rhsMax =   1.63875164105320E-07  9.02423093235336E+00
 cg2d: Sum(rhs),rhsMax =   1.63795320418103E-07  9.02863410711437E+00
 cg2d: Sum(rhs),rhsMax =   1.63714346967936E-07  9.03308492807320E+00
 cg2d: Sum(rhs),rhsMax =   1.63633295358068E-07  9.03758589550099E+00
 cg2d: Sum(rhs),rhsMax =   1.63551085563540E-07  9.04213843256992E+00
 cg2d: Sum(rhs),rhsMax =   1.63468094172003E-07  9.04674278808053E+00
 cg2d: Sum(rhs),rhsMax =   1.63383937490380E-07  9.05139800068177E+00
 cg2d: Sum(rhs),rhsMax =   1.63299503697090E-07  9.05610191103194E+00
 cg2d: Sum(rhs),rhsMax =   1.63213783821448E-07  9.06085121060704E+00
 cg2d: Sum(rhs),rhsMax =   1.63127957364395E-07  9.06564152308058E+00
 cg2d: Sum(rhs),rhsMax =   1.63041192990931E-07  9.07046751690403E+00
 cg2d: Sum(rhs),rhsMax =   1.62954130189519E-07  9.07532304700718E+00
 cg2d: Sum(rhs),rhsMax =   1.62866854225285E-07  9.08020131376247E+00
 cg2d: Sum(rhs),rhsMax =   1.62779372203659E-07  9.08509502964907E+00
 cg2d: Sum(rhs),rhsMax =   1.62691954130878E-07  9.08999659239780E+00
 cg2d: Sum(rhs),rhsMax =   1.62604585796089E-07  9.09489817218861E+00
 cg2d: Sum(rhs),rhsMax =   1.62517501678394E-07  9.09979218349167E+00
 cg2d: Sum(rhs),rhsMax =   1.62430644934375E-07  9.10467101498796E+00
 cg2d: Sum(rhs),rhsMax =   1.62344292675698E-07  9.10952746457549E+00
 cg2d: Sum(rhs),rhsMax =   1.62258693592321E-07  9.11435477997425E+00
 cg2d: Sum(rhs),rhsMax =   1.62174011109073E-07  9.11914675387257E+00
 cg2d: Sum(rhs),rhsMax =   1.62089747846039E-07  9.12389782853965E+00
 cg2d: Sum(rhs),rhsMax =   1.62006273285442E-07  9.12860319621454E+00
 cg2d: Sum(rhs),rhsMax =   1.61924113228906E-07  9.13325897230795E+00
 cg2d: Sum(rhs),rhsMax =   1.61842727663952E-07  9.13786227569362E+00
 cg2d: Sum(rhs),rhsMax =   1.61762493178230E-07  9.14241138202085E+00
 cg2d: Sum(rhs),rhsMax =   1.61683040289518E-07  9.14690582567222E+00
 cg2d: Sum(rhs),rhsMax =   1.61604830850592E-07  9.15134644986131E+00
 cg2d: Sum(rhs),rhsMax =   1.61527417219531E-07  9.15573538211935E+00
 cg2d: Sum(rhs),rhsMax =   1.61451261249113E-07  9.16007592950651E+00
 cg2d: Sum(rhs),rhsMax =   1.61375858453994E-07  9.16437240256295E+00
 EXTERNAL_FIELDS_LOAD, it=   3600090 : Reading new data, i0,i1=    2    3 (prev=    1    2 )
 DIC_FIELDS_LOAD, it=   3600090 : Reading new data, i0,i1=    2    3 (prev=    1    2 )
 cg2d: Sum(rhs),rhsMax =   1.61301031198491E-07  9.16862988474514E+00
 cg2d: Sum(rhs),rhsMax =   1.61226488160082E-07  9.17287253571495E+00
 cg2d: Sum(rhs),rhsMax =   1.61152193811631E-07  9.17711746016568E+00
 cg2d: Sum(rhs),rhsMax =   1.61077544191812E-07  9.18138108877058E+00
 cg2d: Sum(rhs),rhsMax =   1.61002326137805E-07  9.18567861304476E+00
 cg2d: Sum(rhs),rhsMax =   1.60926205694523E-07  9.19002353014883E+00
 cg2d: Sum(rhs),rhsMax =   1.60849204178248E-07  9.19442728641192E+00
 cg2d: Sum(rhs),rhsMax =   1.60771165269580E-07  9.19889902438565E+00
 cg2d: Sum(rhs),rhsMax =   1.60691676853730E-07  9.20344543538162E+00
 cg2d: Sum(rhs),rhsMax =   1.60610625243862E-07  9.20807071616803E+00
 cg2d: Sum(rhs),rhsMax =   1.60529111781216E-07  9.21277660183589E+00
 cg2d: Sum(rhs),rhsMax =   1.60445615904337E-07  9.21756247694247E+00
 cg2d: Sum(rhs),rhsMax =   1.60361018686217E-07  9.22242554775714E+00
 cg2d: Sum(rhs),rhsMax =   1.60275249072583E-07  9.22736105179622E+00
 cg2d: Sum(rhs),rhsMax =   1.60188832865060E-07  9.23236249675336E+00
 cg2d: Sum(rhs),rhsMax =   1.60101009782920E-07  9.23742190581730E+00
 cg2d: Sum(rhs),rhsMax =   1.60012376682062E-07  9.24253005999046E+00
 cg2d: Sum(rhs),rhsMax =   1.59923374098980E-07  9.24767675774736E+00
 cg2d: Sum(rhs),rhsMax =   1.59833348334359E-07  9.25285099530738E+00
 cg2d: Sum(rhs),rhsMax =   1.59743947847346E-07  9.25804118480452E+00
 cg2d: Sum(rhs),rhsMax =   1.59654156561828E-07  9.26323537521839E+00
 cg2d: Sum(rhs),rhsMax =   1.59564649493404E-07  9.26842146305946E+00
 cg2d: Sum(rhs),rhsMax =   1.59475810335152E-07  9.27358734254206E+00
 cg2d: Sum(rhs),rhsMax =   1.59387511189379E-07  9.27872091717081E+00
 cg2d: Sum(rhs),rhsMax =   1.59299617052966E-07  9.28381136814303E+00
 cg2d: Sum(rhs),rhsMax =   1.59212980577195E-07  9.28884862895416E+00
 cg2d: Sum(rhs),rhsMax =   1.59127175436424E-07  9.29382345652557E+00
 cg2d: Sum(rhs),rhsMax =   1.59043672454118E-07  9.29872780684878E+00
 cg2d: Sum(rhs),rhsMax =   1.58960915541684E-07  9.30355510475018E+00
 cg2d: Sum(rhs),rhsMax =   1.58879650768995E-07  9.30830036704988E+00
 cg2d: Sum(rhs),rhsMax =   1.58800041560880E-07  9.31296021040285E+00
 cg2d: Sum(rhs),rhsMax =   1.58721938703366E-07  9.31753280098406E+00
 cg2d: Sum(rhs),rhsMax =   1.58645484304998E-07  9.32201775765958E+00
 cg2d: Sum(rhs),rhsMax =   1.58570394148683E-07  9.32641602969786E+00
 cg2d: Sum(rhs),rhsMax =   1.58496945346087E-07  9.33072978578710E+00
 cg2d: Sum(rhs),rhsMax =   1.58424988683237E-07  9.33496230239218E+00
 cg2d: Sum(rhs),rhsMax =   1.58354438895003E-07  9.33911784987238E+00
 cg2d: Sum(rhs),rhsMax =   1.58284855444890E-07  9.34320156451738E+00
 cg2d: Sum(rhs),rhsMax =   1.58217005719052E-07  9.34721929418330E+00
 cg2d: Sum(rhs),rhsMax =   1.58150037066207E-07  9.35117742178592E+00
 cg2d: Sum(rhs),rhsMax =   1.58083715007251E-07  9.35508267492027E+00
 cg2d: Sum(rhs),rhsMax =   1.58018764295775E-07  9.35894192419005E+00
 cg2d: Sum(rhs),rhsMax =   1.57953891744000E-07  9.36276197821802E+00
 cg2d: Sum(rhs),rhsMax =   1.57889999741201E-07  9.36654938518496E+00
 cg2d: Sum(rhs),rhsMax =   1.57826519853188E-07  9.37031025051024E+00
 cg2d: Sum(rhs),rhsMax =   1.57763658137355E-07  9.37405007348543E+00
 cg2d: Sum(rhs),rhsMax =   1.57700689840112E-07  9.37777361441556E+00
 cg2d: Sum(rhs),rhsMax =   1.57638105235947E-07  9.38148479575939E+00
 cg2d: Sum(rhs),rhsMax =   1.57575861692294E-07  9.38518664193280E+00
 cg2d: Sum(rhs),rhsMax =   1.57513689202915E-07  9.38888125563880E+00
 cg2d: Sum(rhs),rhsMax =   1.57451452764690E-07  9.39256983098558E+00
 cg2d: Sum(rhs),rhsMax =   1.57389870025781E-07  9.39625269423587E+00
 cg2d: Sum(rhs),rhsMax =   1.57327839644950E-07  9.39992937198207E+00
 cg2d: Sum(rhs),rhsMax =   1.57266605071982E-07  9.40359867449008E+00
 cg2d: Sum(rhs),rhsMax =   1.57205221285039E-07  9.40725878524180E+00
 cg2d: Sum(rhs),rhsMax =   1.57144384616004E-07  9.41090734419932E+00
 cg2d: Sum(rhs),rhsMax =   1.57083441365558E-07  9.41454153230469E+00
 cg2d: Sum(rhs),rhsMax =   1.57022817859342E-07  9.41815815729745E+00
 cg2d: Sum(rhs),rhsMax =   1.56962848052444E-07  9.42175373864234E+00
 cg2d: Sum(rhs),rhsMax =   1.56903354309179E-07  9.42532458834380E+00
 EXTERNAL_FIELDS_LOAD, it=   3600150 : Reading new data, i0,i1=    3    4 (prev=    2    3 )
 DIC_FIELDS_LOAD, it=   3600150 : Reading new data, i0,i1=    3    4 (prev=    2    3 )
 cg2d: Sum(rhs),rhsMax =   1.56844386367538E-07  9.42886688985512E+00
 cg2d: Sum(rhs),rhsMax =   1.56786050808932E-07  9.43235379724390E+00
 cg2d: Sum(rhs),rhsMax =   1.56729463185457E-07  9.43576817325861E+00
 cg2d: Sum(rhs),rhsMax =   1.56674040852067E-07  9.43909408079935E+00
 cg2d: Sum(rhs),rhsMax =   1.56620934887997E-07  9.44231724780375E+00
 cg2d: Sum(rhs),rhsMax =   1.56569370801662E-07  9.44542544012602E+00
 cg2d: Sum(rhs),rhsMax =   1.56519689653578E-07  9.44840873884622E+00
 cg2d: Sum(rhs),rhsMax =   1.56472822254727E-07  9.45125971609770E+00
 cg2d: Sum(rhs),rhsMax =   1.56427617525878E-07  9.45397350936240E+00
 cg2d: Sum(rhs),rhsMax =   1.56384757588057E-07  9.45654781865251E+00
 cg2d: Sum(rhs),rhsMax =   1.56344832191735E-07  9.45898283383023E+00
 cg2d: Sum(rhs),rhsMax =   1.56306633414260E-07  9.46128109723642E+00
 cg2d: Sum(rhs),rhsMax =   1.56271084961190E-07  9.46344731860571E+00
 cg2d: Sum(rhs),rhsMax =   1.56237142334703E-07  9.46548815348608E+00
 cg2d: Sum(rhs),rhsMax =   1.56205267387577E-07  9.46741194668024E+00
 cg2d: Sum(rhs),rhsMax =   1.56175239851564E-07  9.46922844872215E+00
 cg2d: Sum(rhs),rhsMax =   1.56147137886364E-07  9.47094849760508E+00
 cg2d: Sum(rhs),rhsMax =   1.56120208316679E-07  9.47258374009707E+00
 cg2d: Sum(rhs),rhsMax =   1.56094635883619E-07  9.47414632630027E+00
 cg2d: Sum(rhs),rhsMax =   1.56069631884748E-07  9.47564860958206E+00
 cg2d: Sum(rhs),rhsMax =   1.56045885546519E-07  9.47710285869683E+00
 cg2d: Sum(rhs),rhsMax =   1.56022359476538E-07  9.47852099456481E+00
 cg2d: Sum(rhs),rhsMax =   1.55999494211301E-07  9.47991435650409E+00
 cg2d: Sum(rhs),rhsMax =   1.55977154747688E-07  9.48129350219173E+00
 cg2d: Sum(rhs),rhsMax =   1.55954339220443E-07  9.48266804354933E+00
 cg2d: Sum(rhs),rhsMax =   1.55931793699438E-07  9.48404652431056E+00
 cg2d: Sum(rhs),rhsMax =   1.55909042121039E-07  9.48543632689988E+00
 cg2d: Sum(rhs),rhsMax =   1.55885821584434E-07  9.48684360539340E+00
 cg2d: Sum(rhs),rhsMax =   1.55862714734667E-07  9.48827325855926E+00
 cg2d: Sum(rhs),rhsMax =   1.55838826287891E-07  9.48972893204264E+00
 cg2d: Sum(rhs),rhsMax =   1.55814433355772E-07  9.49121303094114E+00
 cg2d: Sum(rhs),rhsMax =   1.55789983580235E-07  9.49272675313569E+00
 cg2d: Sum(rhs),rhsMax =   1.55764709575124E-07  9.49427013125867E+00
 cg2d: Sum(rhs),rhsMax =   1.55739108720354E-07  9.49584209100241E+00
 cg2d: Sum(rhs),rhsMax =   1.55712911009687E-07  9.49744052944898E+00
 cg2d: Sum(rhs),rhsMax =   1.55686521452481E-07  9.49906241013908E+00
 cg2d: Sum(rhs),rhsMax =   1.55659733991342E-07  9.50070387273709E+00
 cg2d: Sum(rhs),rhsMax =   1.55632626785973E-07  9.50236035485632E+00
 cg2d: Sum(rhs),rhsMax =   1.55605491158894E-07  9.50402672184669E+00
 cg2d: Sum(rhs),rhsMax =   1.55578298688397E-07  9.50569741335586E+00
 cg2d: Sum(rhs),rhsMax =   3.21395788205336E-07  9.50736669902865E+00
 cg2d: Sum(rhs),rhsMax =   3.21339577169510E-07  9.50902835424092E+00
 cg2d: Sum(rhs),rhsMax =   3.21284055360138E-07  9.51067655584032E+00
 cg2d: Sum(rhs),rhsMax =   3.21229400412903E-07  9.51230546227635E+00
 cg2d: Sum(rhs),rhsMax =   3.21175249951011E-07  9.51390941981709E+00
 cg2d: Sum(rhs),rhsMax =   3.21122392676898E-07  9.51548308540754E+00
 cg2d: Sum(rhs),rhsMax =   3.21070416475777E-07  9.51702154008671E+00
 cg2d: Sum(rhs),rhsMax =   3.21020173998932E-07  9.51852036612638E+00
 cg2d: Sum(rhs),rhsMax =   3.20971324185848E-07  9.51997568844951E+00
 cg2d: Sum(rhs),rhsMax =   3.20924165464476E-07  9.52138418330724E+00
 cg2d: Sum(rhs),rhsMax =   3.21395788205336E-07  9.50736669902865E+00
 cg2d: Sum(rhs),rhsMax =   3.21339577169510E-07  9.50902835424092E+00
 cg2d: Sum(rhs),rhsMax =   3.21284055360138E-07  9.51067655584032E+00
 cg2d: Sum(rhs),rhsMax =   3.21229400412903E-07  9.51230546227635E+00
 cg2d: Sum(rhs),rhsMax =   3.21175249951011E-07  9.51390941981709E+00
 cg2d: Sum(rhs),rhsMax =   3.21122392676898E-07  9.51548308540754E+00
 cg2d: Sum(rhs),rhsMax =   3.21070416475777E-07  9.51702154008671E+00
 cg2d: Sum(rhs),rhsMax =   3.21020173998932E-07  9.51852036612638E+00
 cg2d: Sum(rhs),rhsMax =   3.20971324185848E-07  9.51997568844951E+00
 cg2d: Sum(rhs),rhsMax =   6.64186615040308E-07  9.52138409548205E+00
 cg2d: Sum(rhs),rhsMax =   4.82280881897168E-13  4.67720314673266E-02
 cg2d: Sum(rhs),rhsMax =   3.21395788205336E-07  9.50736669902865E+00
 cg2d: Sum(rhs),rhsMax =   3.21339577169510E-07  9.50902835424092E+00
 cg2d: Sum(rhs),rhsMax =   3.21284055360138E-07  9.51067655584032E+00
 cg2d: Sum(rhs),rhsMax =   3.21229400412903E-07  9.51230546227635E+00
 cg2d: Sum(rhs),rhsMax =   3.21175249951011E-07  9.51390941981709E+00
 cg2d: Sum(rhs),rhsMax =   3.21122392676898E-07  9.51548308540754E+00
 cg2d: Sum(rhs),rhsMax =   3.21070416475777E-07  9.51702154008671E+00
 cg2d: Sum(rhs),rhsMax =   3.21020173998932E-07  9.51852036612638E+00
 cg2d: Sum(rhs),rhsMax =   8.08408934460658E-07  9.51997532427205E+00
 cg2d: Sum(rhs),rhsMax =   4.53415083256914E-13  4.78811225342388E-02
 cg2d: Sum(rhs),rhsMax =   3.21395788205336E-07  9.50736669902865E+00
 cg2d: Sum(rhs),rhsMax =   3.21339577169510E-07  9.50902835424092E+00
 cg2d: Sum(rhs),rhsMax =   3.21284055360138E-07  9.51067655584032E+00
 cg2d: Sum(rhs),rhsMax =   3.21229400412903E-07  9.51230546227635E+00
 cg2d: Sum(rhs),rhsMax =   3.21175249951011E-07  9.51390941981709E+00
 cg2d: Sum(rhs),rhsMax =   3.21122392676898E-07  9.51548308540754E+00
 cg2d: Sum(rhs),rhsMax =   3.21070416475777E-07  9.51702154008671E+00
 cg2d: Sum(rhs),rhsMax =  -9.94821576227878E-08  9.51852054896686E+00
 cg2d: Sum(rhs),rhsMax =   3.36175531856497E-13  4.87409993957122E-02
 cg2d: Sum(rhs),rhsMax =   3.21395788205336E-07  9.50736669902865E+00
 cg2d: Sum(rhs),rhsMax =   3.21339577169510E-07  9.50902835424092E+00
 cg2d: Sum(rhs),rhsMax =   3.21284055360138E-07  9.51067655584032E+00
 cg2d: Sum(rhs),rhsMax =   3.21229400412903E-07  9.51230546227635E+00
 cg2d: Sum(rhs),rhsMax =   3.21175249951011E-07  9.51390941981709E+00
 cg2d: Sum(rhs),rhsMax =   3.21122392676898E-07  9.51548308540754E+00
 cg2d: Sum(rhs),rhsMax =   5.97408366331820E-07  9.51702156192753E+00
 cg2d: Sum(rhs),rhsMax =   2.31370478331883E-13  4.93597314823904E-02
 cg2d: Sum(rhs),rhsMax =   3.21395788205336E-07  9.50736669902865E+00
 cg2d: Sum(rhs),rhsMax =   3.21339577169510E-07  9.50902835424092E+00
 cg2d: Sum(rhs),rhsMax =   3.21284055360138E-07  9.51067655584032E+00
 cg2d: Sum(rhs),rhsMax =   3.21229400412903E-07  9.51230546227635E+00
 cg2d: Sum(rhs),rhsMax =   3.21175249951011E-07  9.51390941981709E+00
 cg2d: Sum(rhs),rhsMax =  -7.44622198567413E-07  9.51548323802561E+00
 cg2d: Sum(rhs),rhsMax =   1.57207580286922E-13  4.97864144566181E-02
 cg2d: Sum(rhs),rhsMax =   3.21395788205336E-07  9.50736669902865E+00
 cg2d: Sum(rhs),rhsMax =   3.21339577169510E-07  9.50902835424092E+00
 cg2d: Sum(rhs),rhsMax =   3.21284055360138E-07  9.51067655584032E+00
 cg2d: Sum(rhs),rhsMax =   3.21229400412903E-07  9.51230546227635E+00
 cg2d: Sum(rhs),rhsMax =  -1.01255580631232E-06  9.51390975511515E+00
 cg2d: Sum(rhs),rhsMax =   9.59232693276135E-14  5.01123502172103E-02
 cg2d: Sum(rhs),rhsMax =   3.21395788205336E-07  9.50736669902865E+00
 cg2d: Sum(rhs),rhsMax =   3.21339577169510E-07  9.50902835424092E+00
 cg2d: Sum(rhs),rhsMax =   3.21284055360138E-07  9.51067655584032E+00
 cg2d: Sum(rhs),rhsMax =   4.92215150416087E-07  9.51230539769090E+00
 cg2d: Sum(rhs),rhsMax =  -3.99680288865056E-15  5.03490351374842E-02
 cg2d: Sum(rhs),rhsMax =   3.21395788205336E-07  9.50736669902865E+00
 cg2d: Sum(rhs),rhsMax =   3.21339577169510E-07  9.50902835424092E+00
 cg2d: Sum(rhs),rhsMax =   2.07686966291476E-07  9.51067684107539E+00
 cg2d: Sum(rhs),rhsMax =  -5.63993296509580E-14  5.04116949072095E-02
 cg2d: Sum(rhs),rhsMax =   3.21395788205336E-07  9.50736669902865E+00
 cg2d: Sum(rhs),rhsMax =  -6.02338545263592E-07  9.50902856641505E+00
 cg2d: Sum(rhs),rhsMax =  -1.13686837721616E-13  5.02362975113198E-02
 cg2d: Sum(rhs),rhsMax =   3.21395383195977E-07  9.50736669914191E+00
 cg2d: Sum(rhs),rhsMax =  -2.09610107049230E-13  5.01034073712713E-02
 EXTERNAL_FIELDS_LOAD, it=   3600000 : Reading new data, i0,i1=   12    1 (prev=   12    4 )
 DIC_FIELDS_LOAD, it=   3600000 : Reading new data, i0,i1=   12    1 (prev=   12    0 )
 cg2d: Sum(rhs),rhsMax =   1.69318610687696E-07  8.73439699737069E+00
 cg2d: Sum(rhs),rhsMax =   1.69217777568065E-07  8.73957985685053E+00
 cg2d: Sum(rhs),rhsMax =   1.69116930237578E-07  8.74478996407667E+00
 cg2d: Sum(rhs),rhsMax =   1.69015713424869E-07  8.75002525197054E+00
 cg2d: Sum(rhs),rhsMax =   1.68913977915963E-07  8.75528319149979E+00
 cg2d: Sum(rhs),rhsMax =   1.68812391621032E-07  8.76056091159563E+00
 cg2d: Sum(rhs),rhsMax =   1.68710130310501E-07  8.76585531016545E+00
 cg2d: Sum(rhs),rhsMax =   1.68607783734842E-07  8.77116317961867E+00
 cg2d: Sum(rhs),rhsMax =   1.68505465580893E-07  8.77648131488675E+00
 cg2d: Sum(rhs),rhsMax =   1.68403296640918E-07  8.78180660701903E+00
 cg2d: Sum(rhs),rhsMax =   1.68301063752097E-07  8.78713610702002E+00
 cg2d: Sum(rhs),rhsMax =   1.68199015604387E-07  8.79246706727320E+00
 cg2d: Sum(rhs),rhsMax =   1.68096867980694E-07  8.79779694946195E+00
 cg2d: Sum(rhs),rhsMax =   1.67995075628369E-07  8.80312339652564E+00
 cg2d: Sum(rhs),rhsMax =   1.67893297486899E-07  8.80844419596376E+00
 cg2d: Sum(rhs),rhsMax =   1.67792002514489E-07  8.81375727000352E+00
 cg2d: Sum(rhs),rhsMax =   1.67690991759173E-07  8.81906074076855E+00
 cg2d: Sum(rhs),rhsMax =   1.67590364696935E-07  8.82435302858595E+00
 cg2d: Sum(rhs),rhsMax =   1.67489801583542E-07  8.82963296688162E+00
 cg2d: Sum(rhs),rhsMax =   1.67389771377202E-07  8.83489991268453E+00
 cg2d: Sum(rhs),rhsMax =   1.67290018282529E-07  8.84015381998810E+00
 cg2d: Sum(rhs),rhsMax =   1.67191025468583E-07  8.84539524558423E+00
 cg2d: Sum(rhs),rhsMax =   1.67091911862371E-07  8.85062527386172E+00
 cg2d: Sum(rhs),rhsMax =   1.66993110894964E-07  8.85584539161906E+00
 cg2d: Sum(rhs),rhsMax =   1.66895297581959E-07  8.86105731971219E+00
 cg2d: Sum(rhs),rhsMax =   1.66797214262715E-07  8.86626284368505E+00
 cg2d: Sum(rhs),rhsMax =   1.66699088310907E-07  8.87146368108963E+00
 cg2d: Sum(rhs),rhsMax =   1.66601175521919E-07  8.87666140941337E+00
 cg2d: Sum(rhs),rhsMax =   1.66503703269427E-07  8.88185744320308E+00
 cg2d: Sum(rhs),rhsMax =   1.66406401547192E-07  8.88705304968201E+00
 EXTERNAL_FIELDS_LOAD, it=   3600030 : Reading new data, i0,i1=    1    2 (prev=   12    1 )
 DIC_FIELDS_LOAD, it=   3600030 : Reading new data, i0,i1=    1    2 (prev=   12    1 )
 cg2d: Sum(rhs),rhsMax =   1.66308751659017E-07  8.89224939629417E+00
 cg2d: Sum(rhs),rhsMax =   1.66211989949261E-07  8.89742905273518E+00
 cg2d: Sum(rhs),rhsMax =   1.66115810884548E-07  8.90258194312370E+00
 cg2d: Sum(rhs),rhsMax =   1.66020008407486E-07  8.90769862985287E+00
 cg2d: Sum(rhs),rhsMax =   1.65925222006535E-07  8.91277064894441E+00
 cg2d: Sum(rhs),rhsMax =   1.65832325649262E-07  8.91779073567431E+00
 cg2d: Sum(rhs),rhsMax =   1.65739969304468E-07  8.92275296238945E+00
 cg2d: Sum(rhs),rhsMax =   1.65648664562923E-07  8.92765282308104E+00
 cg2d: Sum(rhs),rhsMax =   1.65559029596807E-07  8.93248727153984E+00
 cg2d: Sum(rhs),rhsMax =   1.65470908086718E-07  8.93725470683360E+00
 cg2d: Sum(rhs),rhsMax =   1.65383411854236E-07  8.94195490169141E+00
 cg2d: Sum(rhs),rhsMax =   1.65297855403423E-07  8.94658889014494E+00
 cg2d: Sum(rhs),rhsMax =   1.65213478453552E-07  8.95115882656284E+00
 cg2d: Sum(rhs),rhsMax =   1.65130131790647E-07  8.95566783046152E+00
 cg2d: Sum(rhs),rhsMax =   1.65047609357316E-07  8.96011984139981E+00
 cg2d: Sum(rhs),rhsMax =   1.64966841964542E-07  8.96451949805779E+00
 cg2d: Sum(rhs),rhsMax =   1.64886614584248E-07  8.96887204401274E+00
 cg2d: Sum(rhs),rhsMax =   1.64807353542074E-07  8.97318325974703E+00
 cg2d: Sum(rhs),rhsMax =   1.64728760410071E-07  8.97745941334167E+00
 cg2d: Sum(rhs),rhsMax =   1.64650550971146E-07  8.98170721084718E+00
 cg2d: Sum(rhs),rhsMax =   1.64573251026923E-07  8.98593374417503E+00
 cg2d: Sum(rhs),rhsMax =   1.64495830290434E-07  8.99014648706113E+00
 cg2d: Sum(rhs),rhsMax =   1.64419148518391E-07  8.99435313191228E+00
 cg2d: Sum(rhs),rhsMax =   1.64342466746348E-07  8.99856143301709E+00
 cg2d: Sum(rhs),rhsMax =   1.64265266278107E-07  9.00277891979376E+00
 cg2d: Sum(rhs),rhsMax =   1.64188094231577E-07  9.00701226475977E+00
 cg2d: Sum(rhs),rhsMax =   1.64110602440815E-07  9.01126800872608E+00
 cg2d: Sum(rhs),rhsMax =   1.64032670113556E-07  9.01555262481054E+00
 cg2d: Sum(rhs),rhsMax =   1.63954233300956E-07  9.01987189615712E+00
 cg2d: Sum(rhs),rhsMax =   1.63875164105320E-07  9.02423093235336E+00
 cg2d: Sum(rhs),rhsMax =   1.63795320418103E-07  9.02863410711437E+00
 cg2d: Sum(rhs),rhsMax =   1.63714346967936E-07  9.03308492807320E+00
 cg2d: Sum(rhs),rhsMax =   1.63633295358068E-07  9.03758589550099E+00
 cg2d: Sum(rhs),rhsMax =   1.63551085563540E-07  9.04213843256992E+00
 cg2d: Sum(rhs),rhsMax =   1.63468094172003E-07  9.04674278808053E+00
 cg2d: Sum(rhs),rhsMax =   1.63383937490380E-07  9.05139800068177E+00
 cg2d: Sum(rhs),rhsMax =   1.63299503697090E-07  9.05610191103194E+00
 cg2d: Sum(rhs),rhsMax =   1.63213783821448E-07  9.06085121060704E+00
 cg2d: Sum(rhs),rhsMax =   1.63127957364395E-07  9.06564152308058E+00
 cg2d: Sum(rhs),rhsMax =   1.63041192990931E-07  9.07046751690403E+00
 cg2d: Sum(rhs),rhsMax =   1.62954130189519E-07  9.07532304700718E+00
 cg2d: Sum(rhs),rhsMax =   1.62866854225285E-07  9.08020131376247E+00
 cg2d: Sum(rhs),rhsMax =   1.62779372203659E-07  9.08509502964907E+00
 cg2d: Sum(rhs),rhsMax =   1.62691954130878E-07  9.08999659239780E+00
 cg2d: Sum(rhs),rhsMax =   1.62604585796089E-07  9.09489817218861E+00
 cg2d: Sum(rhs),rhsMax =   1.62517501678394E-07  9.09979218349167E+00
 cg2d: Sum(rhs),rhsMax =   1.62430644934375E-07  9.10467101498796E+00
 cg2d: Sum(rhs),rhsMax =   1.62344292675698E-07  9.10952746457549E+00
 cg2d: Sum(rhs),rhsMax =   1.62258693592321E-07  9.11435477997425E+00
 cg2d: Sum(rhs),rhsMax =   1.62174011109073E-07  9.11914675387257E+00
 cg2d: Sum(rhs),rhsMax =   1.62089747846039E-07  9.12389782853965E+00
 cg2d: Sum(rhs),rhsMax =   1.62006273285442E-07  9.12860319621454E+00
 cg2d: Sum(rhs),rhsMax =   1.61924113228906E-07  9.13325897230795E+00
 cg2d: Sum(rhs),rhsMax =   1.61842727663952E-07  9.13786227569362E+00
 cg2d: Sum(rhs),rhsMax =   1.61762493178230E-07  9.14241138202085E+00
 cg2d: Sum(rhs),rhsMax =   1.61683040289518E-07  9.14690582567222E+00
 cg2d: Sum(rhs),rhsMax =   1.61604830850592E-07  9.15134644986131E+00
 cg2d: Sum(rhs),rhsMax =   1.61527417219531E-07  9.15573538211935E+00
 cg2d: Sum(rhs),rhsMax =   1.61451261249113E-07  9.16007592950651E+00
 cg2d: Sum(rhs),rhsMax =   1.61375858453994E-07  9.16437240256295E+00
 EXTERNAL_FIELDS_LOAD, it=   3600090 : Reading new data, i0,i1=    2    3 (prev=    1    2 )
 DIC_FIELDS_LOAD, it=   3600090 : Reading new data, i0,i1=    2    3 (prev=    1    2 )
 cg2d: Sum(rhs),rhsMax =   1.61301031198491E-07  9.16862988474514E+00
 cg2d: Sum(rhs),rhsMax =   1.61226488160082E-07  9.17287253571495E+00
 cg2d: Sum(rhs),rhsMax =   1.61152193811631E-07  9.17711746016568E+00
 cg2d: Sum(rhs),rhsMax =   1.61077544191812E-07  9.18138108877058E+00
 cg2d: Sum(rhs),rhsMax =   1.61002326137805E-07  9.18567861304476E+00
 cg2d: Sum(rhs),rhsMax =   1.60926205694523E-07  9.19002353014883E+00
 cg2d: Sum(rhs),rhsMax =   1.60849204178248E-07  9.19442728641192E+00
 cg2d: Sum(rhs),rhsMax =   1.60771165269580E-07  9.19889902438565E+00
 cg2d: Sum(rhs),rhsMax =   1.60691676853730E-07  9.20344543538162E+00
 cg2d: Sum(rhs),rhsMax =   1.60610625243862E-07  9.20807071616803E+00
 cg2d: Sum(rhs),rhsMax =   1.60529111781216E-07  9.21277660183589E+00
 cg2d: Sum(rhs),rhsMax =   1.60445615904337E-07  9.21756247694247E+00
 cg2d: Sum(rhs),rhsMax =   1.60361018686217E-07  9.22242554775714E+00
 cg2d: Sum(rhs),rhsMax =   1.60275249072583E-07  9.22736105179622E+00
 cg2d: Sum(rhs),rhsMax =   1.60188832865060E-07  9.23236249675336E+00
 cg2d: Sum(rhs),rhsMax =   1.60101009782920E-07  9.23742190581730E+00
 cg2d: Sum(rhs),rhsMax =   1.60012376682062E-07  9.24253005999046E+00
 cg2d: Sum(rhs),rhsMax =   1.59923374098980E-07  9.24767675774736E+00
 cg2d: Sum(rhs),rhsMax =   1.59833348334359E-07  9.25285099530738E+00
 cg2d: Sum(rhs),rhsMax =   1.59743947847346E-07  9.25804118480452E+00
 cg2d: Sum(rhs),rhsMax =   1.59654156561828E-07  9.26323537521839E+00
 cg2d: Sum(rhs),rhsMax =   1.59564649493404E-07  9.26842146305946E+00
 cg2d: Sum(rhs),rhsMax =   1.59475810335152E-07  9.27358734254206E+00
 cg2d: Sum(rhs),rhsMax =   1.59387511189379E-07  9.27872091717081E+00
 cg2d: Sum(rhs),rhsMax =   1.59299617052966E-07  9.28381136814303E+00
 cg2d: Sum(rhs),rhsMax =   1.59212980577195E-07  9.28884862895416E+00
 cg2d: Sum(rhs),rhsMax =   1.59127175436424E-07  9.29382345652557E+00
 cg2d: Sum(rhs),rhsMax =   1.59043672454118E-07  9.29872780684878E+00
 cg2d: Sum(rhs),rhsMax =   1.58960915541684E-07  9.30355510475018E+00
 cg2d: Sum(rhs),rhsMax =   1.58879650768995E-07  9.30830036704988E+00
 cg2d: Sum(rhs),rhsMax =   1.58800041560880E-07  9.31296021040285E+00
 cg2d: Sum(rhs),rhsMax =   1.58721938703366E-07  9.31753280098406E+00
 cg2d: Sum(rhs),rhsMax =   1.58645484304998E-07  9.32201775765958E+00
 cg2d: Sum(rhs),rhsMax =   1.58570394148683E-07  9.32641602969786E+00
 cg2d: Sum(rhs),rhsMax =   1.58496945346087E-07  9.33072978578710E+00
 cg2d: Sum(rhs),rhsMax =   1.58424988683237E-07  9.33496230239218E+00
 cg2d: Sum(rhs),rhsMax =   1.58354438895003E-07  9.33911784987238E+00
 cg2d: Sum(rhs),rhsMax =   1.58284855444890E-07  9.34320156451738E+00
 cg2d: Sum(rhs),rhsMax =   1.58217005719052E-07  9.34721929418330E+00
 cg2d: Sum(rhs),rhsMax =   1.58150037066207E-07  9.35117742178592E+00
 cg2d: Sum(rhs),rhsMax =   1.58083715007251E-07  9.35508267492027E+00
 cg2d: Sum(rhs),rhsMax =   1.58018764295775E-07  9.35894192419005E+00
 cg2d: Sum(rhs),rhsMax =   1.57953891744000E-07  9.36276197821802E+00
 cg2d: Sum(rhs),rhsMax =   1.57889999741201E-07  9.36654938518496E+00
 cg2d: Sum(rhs),rhsMax =   1.57826519853188E-07  9.37031025051024E+00
 cg2d: Sum(rhs),rhsMax =   1.57763658137355E-07  9.37405007348543E+00
 cg2d: Sum(rhs),rhsMax =   1.57700689840112E-07  9.37777361441556E+00
 cg2d: Sum(rhs),rhsMax =   1.57638105235947E-07  9.38148479575939E+00
 cg2d: Sum(rhs),rhsMax =   1.57575861692294E-07  9.38518664193280E+00
 cg2d: Sum(rhs),rhsMax =   1.57513689202915E-07  9.38888125563880E+00
 cg2d: Sum(rhs),rhsMax =   1.57451452764690E-07  9.39256983098558E+00
 cg2d: Sum(rhs),rhsMax =   1.57389870025781E-07  9.39625269423587E+00
 cg2d: Sum(rhs),rhsMax =   1.57327839644950E-07  9.39992937198207E+00
 cg2d: Sum(rhs),rhsMax =   1.57266605071982E-07  9.40359867449008E+00
 cg2d: Sum(rhs),rhsMax =   1.57205221285039E-07  9.40725878524180E+00
 cg2d: Sum(rhs),rhsMax =   1.57144384616004E-07  9.41090734419932E+00
 cg2d: Sum(rhs),rhsMax =   1.57083441365558E-07  9.41454153230469E+00
 cg2d: Sum(rhs),rhsMax =   1.57022817859342E-07  9.41815815729745E+00
 cg2d: Sum(rhs),rhsMax =   1.56962848052444E-07  9.42175373864234E+00
 cg2d: Sum(rhs),rhsMax =   1.56903354309179E-07  9.42532458834380E+00
 EXTERNAL_FIELDS_LOAD, it=   3600150 : Reading new data, i0,i1=    3    4 (prev=    2    3 )
 DIC_FIELDS_LOAD, it=   3600150 : Reading new data, i0,i1=    3    4 (prev=    2    3 )
 cg2d: Sum(rhs),rhsMax =   1.56844386367538E-07  9.42886688985512E+00
 cg2d: Sum(rhs),rhsMax =   1.56786050808932E-07  9.43235379724390E+00
 cg2d: Sum(rhs),rhsMax =   1.56729463185457E-07  9.43576817325861E+00
 cg2d: Sum(rhs),rhsMax =   1.56674040852067E-07  9.43909408079935E+00
 cg2d: Sum(rhs),rhsMax =   1.56620934887997E-07  9.44231724780375E+00
 cg2d: Sum(rhs),rhsMax =   1.56569370801662E-07  9.44542544012602E+00
 cg2d: Sum(rhs),rhsMax =   1.56519689653578E-07  9.44840873884622E+00
 cg2d: Sum(rhs),rhsMax =   1.56472822254727E-07  9.45125971609770E+00
 cg2d: Sum(rhs),rhsMax =   1.56427617525878E-07  9.45397350936240E+00
 cg2d: Sum(rhs),rhsMax =   1.56384757588057E-07  9.45654781865251E+00
 cg2d: Sum(rhs),rhsMax =   1.56344832191735E-07  9.45898283383023E+00
 cg2d: Sum(rhs),rhsMax =   1.56306633414260E-07  9.46128109723642E+00
 cg2d: Sum(rhs),rhsMax =   1.56271084961190E-07  9.46344731860571E+00
 cg2d: Sum(rhs),rhsMax =   1.56237142334703E-07  9.46548815348608E+00
 cg2d: Sum(rhs),rhsMax =   1.56205267387577E-07  9.46741194668024E+00
 cg2d: Sum(rhs),rhsMax =   1.56175239851564E-07  9.46922844872215E+00
 cg2d: Sum(rhs),rhsMax =   1.56147137886364E-07  9.47094849760508E+00
 cg2d: Sum(rhs),rhsMax =   1.56120208316679E-07  9.47258374009707E+00
 cg2d: Sum(rhs),rhsMax =   1.56094635883619E-07  9.47414632630027E+00
 cg2d: Sum(rhs),rhsMax =   1.56069631884748E-07  9.47564860958206E+00
 cg2d: Sum(rhs),rhsMax =   1.56045885546519E-07  9.47710285869683E+00
 cg2d: Sum(rhs),rhsMax =   1.56022359476538E-07  9.47852099456481E+00
 cg2d: Sum(rhs),rhsMax =   1.55999494211301E-07  9.47991435650409E+00
 cg2d: Sum(rhs),rhsMax =   1.55977154747688E-07  9.48129350219173E+00
 cg2d: Sum(rhs),rhsMax =   1.55954339220443E-07  9.48266804354933E+00
 cg2d: Sum(rhs),rhsMax =   1.55931793699438E-07  9.48404652431056E+00
 cg2d: Sum(rhs),rhsMax =   1.55909042121039E-07  9.48543632689988E+00
 cg2d: Sum(rhs),rhsMax =   1.55885821584434E-07  9.48684360539340E+00
 cg2d: Sum(rhs),rhsMax =   1.55862714734667E-07  9.48827325855926E+00
 cg2d: Sum(rhs),rhsMax =   1.55838826287891E-07  9.48972893204264E+00
 cg2d: Sum(rhs),rhsMax =  -8.62281979152613E-08  9.49121290785053E+00
 cg2d: Sum(rhs),rhsMax =  -8.62141646962300E-08  9.49272664331976E+00
 cg2d: Sum(rhs),rhsMax =  -8.61999893686516E-08  9.49427002981878E+00
 cg2d: Sum(rhs),rhsMax =  -8.61854303479959E-08  9.49584198157828E+00
 cg2d: Sum(rhs),rhsMax =  -8.61708500110581E-08  9.49744039397961E+00
 cg2d: Sum(rhs),rhsMax =  -8.61562625686929E-08  9.49906223795051E+00
 cg2d: Sum(rhs),rhsMax =  -8.61412772223957E-08  9.50070366420318E+00
 cg2d: Sum(rhs),rhsMax =  -8.61260573969957E-08  9.50236011992286E+00
 cg2d: Sum(rhs),rhsMax =  -8.61105178273647E-08  9.50402647580406E+00
 cg2d: Sum(rhs),rhsMax =  -8.60952056314090E-08  9.50569717209650E+00
 cg2d: Sum(rhs),rhsMax =  -8.62281979152613E-08  9.49121290785053E+00
 cg2d: Sum(rhs),rhsMax =  -8.62141646962300E-08  9.49272664331976E+00
 cg2d: Sum(rhs),rhsMax =  -8.61999893686516E-08  9.49427002981878E+00
 cg2d: Sum(rhs),rhsMax =  -8.61854303479959E-08  9.49584198157828E+00
 cg2d: Sum(rhs),rhsMax =  -8.61708500110581E-08  9.49744039397961E+00
 cg2d: Sum(rhs),rhsMax =  -8.61562625686929E-08  9.49906223795051E+00
 cg2d: Sum(rhs),rhsMax =  -8.61412772223957E-08  9.50070366420318E+00
 cg2d: Sum(rhs),rhsMax =  -8.61260573969957E-08  9.50236011992286E+00
 cg2d: Sum(rhs),rhsMax =  -8.61105178273647E-08  9.50402647580406E+00
 cg2d: Sum(rhs),rhsMax =  -9.00124206282271E-08  9.50569744433585E+00
 cg2d: Sum(rhs),rhsMax =  -3.12638803734444E-13  5.04446445815579E-02
 cg2d: Sum(rhs),rhsMax =  -8.62281979152613E-08  9.49121290785053E+00
 cg2d: Sum(rhs),rhsMax =  -8.62141646962300E-08  9.49272664331976E+00
 cg2d: Sum(rhs),rhsMax =  -8.61999893686516E-08  9.49427002981878E+00
 cg2d: Sum(rhs),rhsMax =  -8.61854303479959E-08  9.49584198157828E+00
 cg2d: Sum(rhs),rhsMax =  -8.61708500110581E-08  9.49744039397961E+00
 cg2d: Sum(rhs),rhsMax =  -8.61562625686929E-08  9.49906223795051E+00
 cg2d: Sum(rhs),rhsMax =  -8.61412772223957E-08  9.50070366420318E+00
 cg2d: Sum(rhs),rhsMax =  -8.61260573969957E-08  9.50236011992286E+00
 cg2d: Sum(rhs),rhsMax =  -7.72423121020438E-08  9.50402643322457E+00
 cg2d: Sum(rhs),rhsMax =  -4.09006162271908E-13  5.17940909994564E-02
 cg2d: Sum(rhs),rhsMax =  -8.62281979152613E-08  9.49121290785053E+00
 cg2d: Sum(rhs),rhsMax =  -8.62141646962300E-08  9.49272664331976E+00
 cg2d: Sum(rhs),rhsMax =  -8.61999893686516E-08  9.49427002981878E+00
 cg2d: Sum(rhs),rhsMax =  -8.61854303479959E-08  9.49584198157828E+00
 cg2d: Sum(rhs),rhsMax =  -8.61708500110581E-08  9.49744039397961E+00
 cg2d: Sum(rhs),rhsMax =  -8.61562625686929E-08  9.49906223795051E+00
 cg2d: Sum(rhs),rhsMax =  -8.61412772223957E-08  9.50070366420318E+00
 cg2d: Sum(rhs),rhsMax =  -1.75880217057056E-08  9.50236019941483E+00
 cg2d: Sum(rhs),rhsMax =  -4.28101998295460E-13  5.23842992243002E-02
 cg2d: Sum(rhs),rhsMax =  -8.62281979152613E-08  9.49121290785053E+00
 cg2d: Sum(rhs),rhsMax =  -8.62141646962300E-08  9.49272664331976E+00
 cg2d: Sum(rhs),rhsMax =  -8.61999893686516E-08  9.49427002981878E+00
 cg2d: Sum(rhs),rhsMax =  -8.61854303479959E-08  9.49584198157828E+00
 cg2d: Sum(rhs),rhsMax =  -8.61708500110581E-08  9.49744039397961E+00
 cg2d: Sum(rhs),rhsMax =  -8.61562625686929E-08  9.49906223795051E+00
 cg2d: Sum(rhs),rhsMax =  -1.27380762648954E-06  9.50070386846610E+00
 cg2d: Sum(rhs),rhsMax =  -5.20472553944273E-13  5.22788317847011E-02
 cg2d: Sum(rhs),rhsMax =  -8.62281979152613E-08  9.49121290785053E+00
 cg2d: Sum(rhs),rhsMax =  -8.62141646962300E-08  9.49272664331976E+00
 cg2d: Sum(rhs),rhsMax =  -8.61999893686516E-08  9.49427002981878E+00
 cg2d: Sum(rhs),rhsMax =  -8.61854303479959E-08  9.49584198157828E+00
 cg2d: Sum(rhs),rhsMax =  -8.61708500110581E-08  9.49744039397961E+00
 cg2d: Sum(rhs),rhsMax =  -5.06739205263784E-07  9.49906194813827E+00
 cg2d: Sum(rhs),rhsMax =  -6.30162588777239E-13  5.19549596579941E-02
 cg2d: Sum(rhs),rhsMax =  -8.62281979152613E-08  9.49121290785053E+00
 cg2d: Sum(rhs),rhsMax =  -8.62141646962300E-08  9.49272664331976E+00
 cg2d: Sum(rhs),rhsMax =  -8.61999893686516E-08  9.49427002981878E+00
 cg2d: Sum(rhs),rhsMax =  -8.61854303479959E-08  9.49584198157828E+00
 cg2d: Sum(rhs),rhsMax =   9.66210535580103E-07  9.49744058025628E+00
 cg2d: Sum(rhs),rhsMax =  -7.36743999141254E-13  5.16484694093973E-02
 cg2d: Sum(rhs),rhsMax =  -8.62281979152613E-08  9.49121290785053E+00
 cg2d: Sum(rhs),rhsMax =  -8.62141646962300E-08  9.49272664331976E+00
 cg2d: Sum(rhs),rhsMax =  -8.61999893686516E-08  9.49427002981878E+00
 cg2d: Sum(rhs),rhsMax =  -1.65486123648861E-06  9.49584219801312E+00
 cg2d: Sum(rhs),rhsMax =  -8.02469202199063E-13  5.12242175872570E-02
 cg2d: Sum(rhs),rhsMax =  -8.62281979152613E-08  9.49121290785053E+00
 cg2d: Sum(rhs),rhsMax =  -8.62141646962300E-08  9.49272664331976E+00
 cg2d: Sum(rhs),rhsMax =  -6.36651463992166E-07  9.49427009222175E+00
 cg2d: Sum(rhs),rhsMax =  -9.53459533548084E-13  5.07452554840091E-02
 cg2d: Sum(rhs),rhsMax =  -8.62281979152613E-08  9.49121290785053E+00
 cg2d: Sum(rhs),rhsMax =  -1.18379435321003E-06  9.49272686684427E+00
 cg2d: Sum(rhs),rhsMax =  -1.06670228205985E-12  5.02021211841757E-02
 cg2d: Sum(rhs),rhsMax =  -8.62278923818849E-08  9.49121290735176E+00
 cg2d: Sum(rhs),rhsMax =  -1.09379172386070E-12  5.00617229320810E-02
 EXTERNAL_FIELDS_LOAD, it=   3600000 : Reading new data, i0,i1=   12    1 (prev=   12    4 )
 DIC_FIELDS_LOAD, it=   3600000 : Reading new data, i0,i1=   12    1 (prev=   12    0 )
 cg2d: Sum(rhs),rhsMax =   1.69318610687696E-07  8.73439699737069E+00
 cg2d: Sum(rhs),rhsMax =   1.69217777568065E-07  8.73957985685053E+00
 cg2d: Sum(rhs),rhsMax =   1.69116930237578E-07  8.74478996407667E+00
 cg2d: Sum(rhs),rhsMax =   1.69015713424869E-07  8.75002525197054E+00
 cg2d: Sum(rhs),rhsMax =   1.68913977915963E-07  8.75528319149979E+00
 cg2d: Sum(rhs),rhsMax =   1.68812391621032E-07  8.76056091159563E+00
 cg2d: Sum(rhs),rhsMax =   1.68710130310501E-07  8.76585531016545E+00
 cg2d: Sum(rhs),rhsMax =   1.68607783734842E-07  8.77116317961867E+00
 cg2d: Sum(rhs),rhsMax =   1.68505465580893E-07  8.77648131488675E+00
 cg2d: Sum(rhs),rhsMax =   1.68403296640918E-07  8.78180660701903E+00
 cg2d: Sum(rhs),rhsMax =   1.68301063752097E-07  8.78713610702002E+00
 cg2d: Sum(rhs),rhsMax =   1.68199015604387E-07  8.79246706727320E+00
 cg2d: Sum(rhs),rhsMax =   1.68096867980694E-07  8.79779694946195E+00
 cg2d: Sum(rhs),rhsMax =   1.67995075628369E-07  8.80312339652564E+00
 cg2d: Sum(rhs),rhsMax =   1.67893297486899E-07  8.80844419596376E+00
 cg2d: Sum(rhs),rhsMax =   1.67792002514489E-07  8.81375727000352E+00
 cg2d: Sum(rhs),rhsMax =   1.67690991759173E-07  8.81906074076855E+00
 cg2d: Sum(rhs),rhsMax =   1.67590364696935E-07  8.82435302858595E+00
 cg2d: Sum(rhs),rhsMax =   1.67489801583542E-07  8.82963296688162E+00
 cg2d: Sum(rhs),rhsMax =   1.67389771377202E-07  8.83489991268453E+00
 cg2d: Sum(rhs),rhsMax =   1.67290018282529E-07  8.84015381998810E+00
 cg2d: Sum(rhs),rhsMax =   1.67191025468583E-07  8.84539524558423E+00
 cg2d: Sum(rhs),rhsMax =   1.67091911862371E-07  8.85062527386172E+00
 cg2d: Sum(rhs),rhsMax =   1.66993110894964E-07  8.85584539161906E+00
 cg2d: Sum(rhs),rhsMax =   1.66895297581959E-07  8.86105731971219E+00
 cg2d: Sum(rhs),rhsMax =   1.66797214262715E-07  8.86626284368505E+00
 cg2d: Sum(rhs),rhsMax =   1.66699088310907E-07  8.87146368108963E+00
 cg2d: Sum(rhs),rhsMax =   1.66601175521919E-07  8.87666140941337E+00
 cg2d: Sum(rhs),rhsMax =   1.66503703269427E-07  8.88185744320308E+00
 cg2d: Sum(rhs),rhsMax =   1.66406401547192E-07  8.88705304968201E+00
 EXTERNAL_FIELDS_LOAD, it=   3600030 : Reading new data, i0,i1=    1    2 (prev=   12    1 )
 DIC_FIELDS_LOAD, it=   3600030 : Reading new data, i0,i1=    1    2 (prev=   12    1 )
 cg2d: Sum(rhs),rhsMax =   1.66308751659017E-07  8.89224939629417E+00
 cg2d: Sum(rhs),rhsMax =   1.66211989949261E-07  8.89742905273518E+00
 cg2d: Sum(rhs),rhsMax =   1.66115810884548E-07  8.90258194312370E+00
 cg2d: Sum(rhs),rhsMax =   1.66020008407486E-07  8.90769862985287E+00
 cg2d: Sum(rhs),rhsMax =   1.65925222006535E-07  8.91277064894441E+00
 cg2d: Sum(rhs),rhsMax =   1.65832325649262E-07  8.91779073567431E+00
 cg2d: Sum(rhs),rhsMax =   1.65739969304468E-07  8.92275296238945E+00
 cg2d: Sum(rhs),rhsMax =   1.65648664562923E-07  8.92765282308104E+00
 cg2d: Sum(rhs),rhsMax =   1.65559029596807E-07  8.93248727153984E+00
 cg2d: Sum(rhs),rhsMax =   1.65470908086718E-07  8.93725470683360E+00
 cg2d: Sum(rhs),rhsMax =   1.65383411854236E-07  8.94195490169141E+00
 cg2d: Sum(rhs),rhsMax =   1.65297855403423E-07  8.94658889014494E+00
 cg2d: Sum(rhs),rhsMax =   1.65213478453552E-07  8.95115882656284E+00
 cg2d: Sum(rhs),rhsMax =   1.65130131790647E-07  8.95566783046152E+00
 cg2d: Sum(rhs),rhsMax =   1.65047609357316E-07  8.96011984139981E+00
 cg2d: Sum(rhs),rhsMax =   1.64966841964542E-07  8.96451949805779E+00
 cg2d: Sum(rhs),rhsMax =   1.64886614584248E-07  8.96887204401274E+00
 cg2d: Sum(rhs),rhsMax =   1.64807353542074E-07  8.97318325974703E+00
 cg2d: Sum(rhs),rhsMax =   1.64728760410071E-07  8.97745941334167E+00
 cg2d: Sum(rhs),rhsMax =   1.64650550971146E-07  8.98170721084718E+00
 cg2d: Sum(rhs),rhsMax =   1.64573251026923E-07  8.98593374417503E+00
 cg2d: Sum(rhs),rhsMax =   1.64495830290434E-07  8.99014648706113E+00
 cg2d: Sum(rhs),rhsMax =   1.64419148518391E-07  8.99435313191228E+00
 cg2d: Sum(rhs),rhsMax =   1.64342466746348E-07  8.99856143301709E+00
 cg2d: Sum(rhs),rhsMax =   1.64265266278107E-07  9.00277891979376E+00
 cg2d: Sum(rhs),rhsMax =   1.64188094231577E-07  9.00701226475977E+00
 cg2d: Sum(rhs),rhsMax =   1.64110602440815E-07  9.01126800872608E+00
 cg2d: Sum(rhs),rhsMax =   1.64032670113556E-07  9.01555262481054E+00
 cg2d: Sum(rhs),rhsMax =   1.63954233300956E-07  9.01987189615712E+00
 cg2d: Sum(rhs),rhsMax =   1.63875164105320E-07  9.02423093235336E+00
 cg2d: Sum(rhs),rhsMax =   1.63795320418103E-07  9.02863410711437E+00
 cg2d: Sum(rhs),rhsMax =   1.63714346967936E-07  9.03308492807320E+00
 cg2d: Sum(rhs),rhsMax =   1.63633295358068E-07  9.03758589550099E+00
 cg2d: Sum(rhs),rhsMax =   1.63551085563540E-07  9.04213843256992E+00
 cg2d: Sum(rhs),rhsMax =   1.63468094172003E-07  9.04674278808053E+00
 cg2d: Sum(rhs),rhsMax =   1.63383937490380E-07  9.05139800068177E+00
 cg2d: Sum(rhs),rhsMax =   1.63299503697090E-07  9.05610191103194E+00
 cg2d: Sum(rhs),rhsMax =   1.63213783821448E-07  9.06085121060704E+00
 cg2d: Sum(rhs),rhsMax =   1.63127957364395E-07  9.06564152308058E+00
 cg2d: Sum(rhs),rhsMax =   1.63041192990931E-07  9.07046751690403E+00
 cg2d: Sum(rhs),rhsMax =   1.62954130189519E-07  9.07532304700718E+00
 cg2d: Sum(rhs),rhsMax =   1.62866854225285E-07  9.08020131376247E+00
 cg2d: Sum(rhs),rhsMax =   1.62779372203659E-07  9.08509502964907E+00
 cg2d: Sum(rhs),rhsMax =   1.62691954130878E-07  9.08999659239780E+00
 cg2d: Sum(rhs),rhsMax =   1.62604585796089E-07  9.09489817218861E+00
 cg2d: Sum(rhs),rhsMax =   1.62517501678394E-07  9.09979218349167E+00
 cg2d: Sum(rhs),rhsMax =   1.62430644934375E-07  9.10467101498796E+00
 cg2d: Sum(rhs),rhsMax =   1.62344292675698E-07  9.10952746457549E+00
 cg2d: Sum(rhs),rhsMax =   1.62258693592321E-07  9.11435477997425E+00
 cg2d: Sum(rhs),rhsMax =   1.62174011109073E-07  9.11914675387257E+00
 cg2d: Sum(rhs),rhsMax =   1.62089747846039E-07  9.12389782853965E+00
 cg2d: Sum(rhs),rhsMax =   1.62006273285442E-07  9.12860319621454E+00
 cg2d: Sum(rhs),rhsMax =   1.61924113228906E-07  9.13325897230795E+00
 cg2d: Sum(rhs),rhsMax =   1.61842727663952E-07  9.13786227569362E+00
 cg2d: Sum(rhs),rhsMax =   1.61762493178230E-07  9.14241138202085E+00
 cg2d: Sum(rhs),rhsMax =   1.61683040289518E-07  9.14690582567222E+00
 cg2d: Sum(rhs),rhsMax =   1.61604830850592E-07  9.15134644986131E+00
 cg2d: Sum(rhs),rhsMax =   1.61527417219531E-07  9.15573538211935E+00
 cg2d: Sum(rhs),rhsMax =   1.61451261249113E-07  9.16007592950651E+00
 cg2d: Sum(rhs),rhsMax =   1.61375858453994E-07  9.16437240256295E+00
 EXTERNAL_FIELDS_LOAD, it=   3600090 : Reading new data, i0,i1=    2    3 (prev=    1    2 )
 DIC_FIELDS_LOAD, it=   3600090 : Reading new data, i0,i1=    2    3 (prev=    1    2 )
 cg2d: Sum(rhs),rhsMax =   1.61301031198491E-07  9.16862988474514E+00
 cg2d: Sum(rhs),rhsMax =   1.61226488160082E-07  9.17287253571495E+00
 cg2d: Sum(rhs),rhsMax =   1.61152193811631E-07  9.17711746016568E+00
 cg2d: Sum(rhs),rhsMax =   1.61077544191812E-07  9.18138108877058E+00
 cg2d: Sum(rhs),rhsMax =   1.61002326137805E-07  9.18567861304476E+00
 cg2d: Sum(rhs),rhsMax =   1.60926205694523E-07  9.19002353014883E+00
 cg2d: Sum(rhs),rhsMax =   1.60849204178248E-07  9.19442728641192E+00
 cg2d: Sum(rhs),rhsMax =   1.60771165269580E-07  9.19889902438565E+00
 cg2d: Sum(rhs),rhsMax =   1.60691676853730E-07  9.20344543538162E+00
 cg2d: Sum(rhs),rhsMax =   1.60610625243862E-07  9.20807071616803E+00
 cg2d: Sum(rhs),rhsMax =   1.60529111781216E-07  9.21277660183589E+00
 cg2d: Sum(rhs),rhsMax =   1.60445615904337E-07  9.21756247694247E+00
 cg2d: Sum(rhs),rhsMax =   1.60361018686217E-07  9.22242554775714E+00
 cg2d: Sum(rhs),rhsMax =   1.60275249072583E-07  9.22736105179622E+00
 cg2d: Sum(rhs),rhsMax =   1.60188832865060E-07  9.23236249675336E+00
 cg2d: Sum(rhs),rhsMax =   1.60101009782920E-07  9.23742190581730E+00
 cg2d: Sum(rhs),rhsMax =   1.60012376682062E-07  9.24253005999046E+00
 cg2d: Sum(rhs),rhsMax =   1.59923374098980E-07  9.24767675774736E+00
 cg2d: Sum(rhs),rhsMax =   1.59833348334359E-07  9.25285099530738E+00
 cg2d: Sum(rhs),rhsMax =   1.59743947847346E-07  9.25804118480452E+00
 cg2d: Sum(rhs),rhsMax =   1.59654156561828E-07  9.26323537521839E+00
 cg2d: Sum(rhs),rhsMax =   1.59564649493404E-07  9.26842146305946E+00
 cg2d: Sum(rhs),rhsMax =   1.59475810335152E-07  9.27358734254206E+00
 cg2d: Sum(rhs),rhsMax =   1.59387511189379E-07  9.27872091717081E+00
 cg2d: Sum(rhs),rhsMax =   1.59299617052966E-07  9.28381136814303E+00
 cg2d: Sum(rhs),rhsMax =   1.59212980577195E-07  9.28884862895416E+00
 cg2d: Sum(rhs),rhsMax =   1.59127175436424E-07  9.29382345652557E+00
 cg2d: Sum(rhs),rhsMax =   1.59043672454118E-07  9.29872780684878E+00
 cg2d: Sum(rhs),rhsMax =   1.58960915541684E-07  9.30355510475018E+00
 cg2d: Sum(rhs),rhsMax =   1.58879650768995E-07  9.30830036704988E+00
 cg2d: Sum(rhs),rhsMax =   1.58800041560880E-07  9.31296021040285E+00
 cg2d: Sum(rhs),rhsMax =   1.58721938703366E-07  9.31753280098406E+00
 cg2d: Sum(rhs),rhsMax =   1.58645484304998E-07  9.32201775765958E+00
 cg2d: Sum(rhs),rhsMax =   1.58570394148683E-07  9.32641602969786E+00
 cg2d: Sum(rhs),rhsMax =   1.58496945346087E-07  9.33072978578710E+00
 cg2d: Sum(rhs),rhsMax =   1.58424988683237E-07  9.33496230239218E+00
 cg2d: Sum(rhs),rhsMax =   1.58354438895003E-07  9.33911784987238E+00
 cg2d: Sum(rhs),rhsMax =   1.58284855444890E-07  9.34320156451738E+00
 cg2d: Sum(rhs),rhsMax =   1.58217005719052E-07  9.34721929418330E+00
 cg2d: Sum(rhs),rhsMax =   1.58150037066207E-07  9.35117742178592E+00
 cg2d: Sum(rhs),rhsMax =   1.58083715007251E-07  9.35508267492027E+00
 cg2d: Sum(rhs),rhsMax =   1.58018764295775E-07  9.35894192419005E+00
 cg2d: Sum(rhs),rhsMax =   1.57953891744000E-07  9.36276197821802E+00
 cg2d: Sum(rhs),rhsMax =   1.57889999741201E-07  9.36654938518496E+00
 cg2d: Sum(rhs),rhsMax =   1.57826519853188E-07  9.37031025051024E+00
 cg2d: Sum(rhs),rhsMax =   1.57763658137355E-07  9.37405007348543E+00
 cg2d: Sum(rhs),rhsMax =   1.57700689840112E-07  9.37777361441556E+00
 cg2d: Sum(rhs),rhsMax =   1.57638105235947E-07  9.38148479575939E+00
 cg2d: Sum(rhs),rhsMax =   1.57575861692294E-07  9.38518664193280E+00
 cg2d: Sum(rhs),rhsMax =   1.57513689202915E-07  9.38888125563880E+00
 cg2d: Sum(rhs),rhsMax =   1.57451452764690E-07  9.39256983098558E+00
 cg2d: Sum(rhs),rhsMax =   1.57389870025781E-07  9.39625269423587E+00
 cg2d: Sum(rhs),rhsMax =   1.57327839644950E-07  9.39992937198207E+00
 cg2d: Sum(rhs),rhsMax =   1.57266605071982E-07  9.40359867449008E+00
 cg2d: Sum(rhs),rhsMax =   1.57205221285039E-07  9.40725878524180E+00
 cg2d: Sum(rhs),rhsMax =   1.57144384616004E-07  9.41090734419932E+00
 cg2d: Sum(rhs),rhsMax =   1.57083441365558E-07  9.41454153230469E+00
 cg2d: Sum(rhs),rhsMax =   1.57022817859342E-07  9.41815815729745E+00
 cg2d: Sum(rhs),rhsMax =   1.56962848052444E-07  9.42175373864234E+00
 cg2d: Sum(rhs),rhsMax =   1.56903354309179E-07  9.42532458834380E+00
 EXTERNAL_FIELDS_LOAD, it=   3600150 : Reading new data, i0,i1=    3    4 (prev=    2    3 )
 DIC_FIELDS_LOAD, it=   3600150 : Reading new data, i0,i1=    3    4 (prev=    2    3 )
 cg2d: Sum(rhs),rhsMax =   1.56844386367538E-07  9.42886688985512E+00
 cg2d: Sum(rhs),rhsMax =   1.56786050808932E-07  9.43235379724390E+00
 cg2d: Sum(rhs),rhsMax =   1.56729463185457E-07  9.43576817325861E+00
 cg2d: Sum(rhs),rhsMax =   1.56674040852067E-07  9.43909408079935E+00
 cg2d: Sum(rhs),rhsMax =   1.56620934887997E-07  9.44231724780375E+00
 cg2d: Sum(rhs),rhsMax =   1.56569370801662E-07  9.44542544012602E+00
 cg2d: Sum(rhs),rhsMax =   1.56519689653578E-07  9.44840873884622E+00
 cg2d: Sum(rhs),rhsMax =   1.56472822254727E-07  9.45125971609770E+00
 cg2d: Sum(rhs),rhsMax =   1.56427617525878E-07  9.45397350936240E+00
 cg2d: Sum(rhs),rhsMax =   1.56384757588057E-07  9.45654781865251E+00
 cg2d: Sum(rhs),rhsMax =   1.56344832191735E-07  9.45898283383023E+00
 cg2d: Sum(rhs),rhsMax =   1.56306633414260E-07  9.46128109723642E+00
 cg2d: Sum(rhs),rhsMax =   1.56271084961190E-07  9.46344731860571E+00
 cg2d: Sum(rhs),rhsMax =   1.56237142334703E-07  9.46548815348608E+00
 cg2d: Sum(rhs),rhsMax =   1.56205267387577E-07  9.46741194668024E+00
 cg2d: Sum(rhs),rhsMax =   1.56175239851564E-07  9.46922844872215E+00
 cg2d: Sum(rhs),rhsMax =   1.56147137886364E-07  9.47094849760508E+00
 cg2d: Sum(rhs),rhsMax =   1.56120208316679E-07  9.47258374009707E+00
 cg2d: Sum(rhs),rhsMax =   1.56094635883619E-07  9.47414632630027E+00
 cg2d: Sum(rhs),rhsMax =   1.56069631884748E-07  9.47564860958206E+00
 cg2d: Sum(rhs),rhsMax =   3.01775116895442E-07  9.47710263690026E+00
 cg2d: Sum(rhs),rhsMax =   3.01730253227106E-07  9.47852080979339E+00
 cg2d: Sum(rhs),rhsMax =   3.01685957992959E-07  9.47991425354721E+00
 cg2d: Sum(rhs),rhsMax =   3.01642188560436E-07  9.48129352579243E+00
 cg2d: Sum(rhs),rhsMax =   3.01598291230221E-07  9.48266822894385E+00
 cg2d: Sum(rhs),rhsMax =   3.01554820225647E-07  9.48404689381634E+00
 cg2d: Sum(rhs),rhsMax =   3.01510397093807E-07  9.48543689068055E+00
 cg2d: Sum(rhs),rhsMax =   3.01465703955728E-07  9.48684436337218E+00
 cg2d: Sum(rhs),rhsMax =   3.01420669757135E-07  9.48827420192375E+00
 cg2d: Sum(rhs),rhsMax =   3.01374114997088E-07  9.48973004442855E+00
 cg2d: Sum(rhs),rhsMax =   3.01775116895442E-07  9.47710263690026E+00
 cg2d: Sum(rhs),rhsMax =   3.01730253227106E-07  9.47852080979339E+00
 cg2d: Sum(rhs),rhsMax =   3.01685957992959E-07  9.47991425354721E+00
 cg2d: Sum(rhs),rhsMax =   3.01642188560436E-07  9.48129352579243E+00
 cg2d: Sum(rhs),rhsMax =   3.01598291230221E-07  9.48266822894385E+00
 cg2d: Sum(rhs),rhsMax =   3.01554820225647E-07  9.48404689381634E+00
 cg2d: Sum(rhs),rhsMax =   3.01510397093807E-07  9.48543689068055E+00
 cg2d: Sum(rhs),rhsMax =   3.01465703955728E-07  9.48684436337218E+00
 cg2d: Sum(rhs),rhsMax =   3.01420669757135E-07  9.48827420192375E+00
 cg2d: Sum(rhs),rhsMax =   1.27836447916252E-06  9.48973034036744E+00
 cg2d: Sum(rhs),rhsMax =  -1.22168941629752E-12  5.05835076273439E-02
 cg2d: Sum(rhs),rhsMax =   3.01775116895442E-07  9.47710263690026E+00
 cg2d: Sum(rhs),rhsMax =   3.01730253227106E-07  9.47852080979339E+00
 cg2d: Sum(rhs),rhsMax =   3.01685957992959E-07  9.47991425354721E+00
 cg2d: Sum(rhs),rhsMax =   3.01642188560436E-07  9.48129352579243E+00
 cg2d: Sum(rhs),rhsMax =   3.01598291230221E-07  9.48266822894385E+00
 cg2d: Sum(rhs),rhsMax =   3.01554820225647E-07  9.48404689381634E+00
 cg2d: Sum(rhs),rhsMax =   3.01510397093807E-07  9.48543689068055E+00
 cg2d: Sum(rhs),rhsMax =   3.01465703955728E-07  9.48684436337218E+00
 cg2d: Sum(rhs),rhsMax =   5.09138374127360E-07  9.48827394445855E+00
 cg2d: Sum(rhs),rhsMax =  -1.26254562360373E-12  5.09550868874123E-02
 cg2d: Sum(rhs),rhsMax =   3.01775116895442E-07  9.47710263690026E+00
 cg2d: Sum(rhs),rhsMax =   3.01730253227106E-07  9.47852080979339E+00
 cg2d: Sum(rhs),rhsMax =   3.01685957992959E-07  9.47991425354721E+00
 cg2d: Sum(rhs),rhsMax =   3.01642188560436E-07  9.48129352579243E+00
 cg2d: Sum(rhs),rhsMax =   3.01598291230221E-07  9.48266822894385E+00
 cg2d: Sum(rhs),rhsMax =   3.01554820225647E-07  9.48404689381634E+00
 cg2d: Sum(rhs),rhsMax =   3.01510397093807E-07  9.48543689068055E+00
 cg2d: Sum(rhs),rhsMax =  -9.17020344104458E-08  9.48684434431823E+00
 cg2d: Sum(rhs),rhsMax =  -1.39088740525040E-12  5.12353694897082E-02
 cg2d: Sum(rhs),rhsMax =   3.01775116895442E-07  9.47710263690026E+00
 cg2d: Sum(rhs),rhsMax =   3.01730253227106E-07  9.47852080979339E+00
 cg2d: Sum(rhs),rhsMax =   3.01685957992959E-07  9.47991425354721E+00
 cg2d: Sum(rhs),rhsMax =   3.01642188560436E-07  9.48129352579243E+00
 cg2d: Sum(rhs),rhsMax =   3.01598291230221E-07  9.48266822894385E+00
 cg2d: Sum(rhs),rhsMax =   3.01554820225647E-07  9.48404689381634E+00
 cg2d: Sum(rhs),rhsMax =   3.73786122054298E-07  9.48543666120103E+00
(PID.TID 0000.0001) // =======================================================
(PID.TID 0000.0001) // Begin AD_MONITOR dynamic field statistics
(PID.TID 0000.0001) // =======================================================
(PID.TID 0000.0001) %MON ad_time_tsnumber             =               3600177
(PID.TID 0000.0001) %MON ad_time_secondsf             =   1.5552764640000E+11
(PID.TID 0000.0001) %MON ad_dynstat_adeta_max         =   1.2545491897371E+03
(PID.TID 0000.0001) %MON ad_dynstat_adeta_min         =  -6.1941664145768E+03
(PID.TID 0000.0001) %MON ad_dynstat_adeta_mean        =  -7.1345758337641E+01
(PID.TID 0000.0001) %MON ad_dynstat_adeta_sd          =   1.2071695904929E+03
(PID.TID 0000.0001) %MON ad_dynstat_adeta_del2        =   1.1832613638311E+01
(PID.TID 0000.0001) %MON ad_dynstat_aduvel_max        =   3.9143826141745E+04
(PID.TID 0000.0001) %MON ad_dynstat_aduvel_min        =  -2.2904232523154E+04
(PID.TID 0000.0001) %MON ad_dynstat_aduvel_mean       =   1.3295968598351E+02
(PID.TID 0000.0001) %MON ad_dynstat_aduvel_sd         =   1.3761847811940E+03
(PID.TID 0000.0001) %MON ad_dynstat_aduvel_del2       =   6.6842268730833E+00
(PID.TID 0000.0001) %MON ad_dynstat_advvel_max        =   2.6991645316532E+04
(PID.TID 0000.0001) %MON ad_dynstat_advvel_min        =  -2.5698894100809E+04
(PID.TID 0000.0001) %MON ad_dynstat_advvel_mean       =   4.7050852891298E+00
(PID.TID 0000.0001) %MON ad_dynstat_advvel_sd         =   1.4530948180915E+03
(PID.TID 0000.0001) %MON ad_dynstat_advvel_del2       =   6.4512833265887E+00
(PID.TID 0000.0001) %MON ad_dynstat_adwvel_max        =   7.5622176402824E+03
(PID.TID 0000.0001) %MON ad_dynstat_adwvel_min        =  -1.0990787501705E+05
(PID.TID 0000.0001) %MON ad_dynstat_adwvel_mean       =  -3.7869252960292E+00
(PID.TID 0000.0001) %MON ad_dynstat_adwvel_sd         =   3.6269553595740E+02
(PID.TID 0000.0001) %MON ad_dynstat_adwvel_del2       =   1.0379647165899E+01
(PID.TID 0000.0001) %MON ad_dynstat_adtheta_max       =   4.5957340175379E+03
(PID.TID 0000.0001) %MON ad_dynstat_adtheta_min       =  -7.6006588850576E+03
(PID.TID 0000.0001) %MON ad_dynstat_adtheta_mean      =   1.9214105595897E+00
(PID.TID 0000.0001) %MON ad_dynstat_adtheta_sd        =   4.1127947836390E+02
(PID.TID 0000.0001) %MON ad_dynstat_adtheta_del2      =   1.2213969722564E+00
(PID.TID 0000.0001) %MON ad_dynstat_adsalt_max        =   3.4134334035891E+04
(PID.TID 0000.0001) %MON ad_dynstat_adsalt_min        =  -2.2290715884132E+04
(PID.TID 0000.0001) %MON ad_dynstat_adsalt_mean       =  -1.0258741920450E+01
(PID.TID 0000.0001) %MON ad_dynstat_adsalt_sd         =   2.1459442193460E+03
(PID.TID 0000.0001) %MON ad_dynstat_adsalt_del2       =   6.1476998590183E+00
(PID.TID 0000.0001) %MON ad_dynstat_adsst_max         =   1.4564936411921E+01
(PID.TID 0000.0001) %MON ad_dynstat_adsst_min         =  -4.7261946819167E+00
(PID.TID 0000.0001) %MON ad_dynstat_adsst_mean        =  -5.4158911883984E-03
(PID.TID 0000.0001) %MON ad_dynstat_adsst_sd          =   2.2206331444180E+00
(PID.TID 0000.0001) %MON ad_dynstat_adsst_del2        =   2.3616794725300E-02
(PID.TID 0000.0001) %MON ad_dynstat_adsss_max         =   1.9345118787564E+01
(PID.TID 0000.0001) %MON ad_dynstat_adsss_min         =  -6.3879653821466E+01
(PID.TID 0000.0001) %MON ad_dynstat_adsss_mean        =   3.5748536464533E-01
(PID.TID 0000.0001) %MON ad_dynstat_adsss_sd          =   7.1414977511649E+00
(PID.TID 0000.0001) %MON ad_dynstat_adsss_del2        =   7.8351970227811E-02
(PID.TID 0000.0001) %MON ad_forcing_adqnet_max        =   0.0000000000000E+00
(PID.TID 0000.0001) %MON ad_forcing_adqnet_min        =   0.0000000000000E+00
(PID.TID 0000.0001) %MON ad_forcing_adqnet_mean       =   0.0000000000000E+00
(PID.TID 0000.0001) %MON ad_forcing_adqnet_sd         =   0.0000000000000E+00
(PID.TID 0000.0001) %MON ad_forcing_adqnet_del2       =   0.0000000000000E+00
(PID.TID 0000.0001) %MON ad_forcing_adqsw_max         =   1.7443091231206E-01
(PID.TID 0000.0001) %MON ad_forcing_adqsw_min         =  -6.0539981631300E-01
(PID.TID 0000.0001) %MON ad_forcing_adqsw_mean        =  -3.6965526304885E-03
(PID.TID 0000.0001) %MON ad_forcing_adqsw_sd          =   5.6595939752826E-02
(PID.TID 0000.0001) %MON ad_forcing_adqsw_del2        =   6.3357964390908E-04
(PID.TID 0000.0001) %MON ad_forcing_adempmr_max       =   0.0000000000000E+00
(PID.TID 0000.0001) %MON ad_forcing_adempmr_min       =   0.0000000000000E+00
(PID.TID 0000.0001) %MON ad_forcing_adempmr_mean      =   0.0000000000000E+00
(PID.TID 0000.0001) %MON ad_forcing_adempmr_sd        =   0.0000000000000E+00
(PID.TID 0000.0001) %MON ad_forcing_adempmr_del2      =   0.0000000000000E+00
(PID.TID 0000.0001) %MON ad_forcing_adfu_max          =   0.0000000000000E+00
(PID.TID 0000.0001) %MON ad_forcing_adfu_min          =   0.0000000000000E+00
(PID.TID 0000.0001) %MON ad_forcing_adfu_mean         =   0.0000000000000E+00
(PID.TID 0000.0001) %MON ad_forcing_adfu_sd           =   0.0000000000000E+00
(PID.TID 0000.0001) %MON ad_forcing_adfu_del2         =   0.0000000000000E+00
(PID.TID 0000.0001) %MON ad_forcing_adfv_max          =   0.0000000000000E+00
(PID.TID 0000.0001) %MON ad_forcing_adfv_min          =   0.0000000000000E+00
(PID.TID 0000.0001) %MON ad_forcing_adfv_mean         =   0.0000000000000E+00
(PID.TID 0000.0001) %MON ad_forcing_adfv_sd           =   0.0000000000000E+00
(PID.TID 0000.0001) %MON ad_forcing_adfv_del2         =   0.0000000000000E+00
(PID.TID 0000.0001) // =======================================================
(PID.TID 0000.0001) // End AD_MONITOR dynamic field statistics
(PID.TID 0000.0001) // =======================================================
(PID.TID 0000.0001) // =======================================================
(PID.TID 0000.0001) // Begin AD_MONITOR ptracer field statistics
(PID.TID 0000.0001) // =======================================================
(PID.TID 0000.0001) %MON ad_trcstat_adptracer01_max   =   0.0000000000000E+00
(PID.TID 0000.0001) %MON ad_trcstat_adptracer01_min   =   0.0000000000000E+00
(PID.TID 0000.0001) %MON ad_trcstat_adptracer01_mean  =   0.0000000000000E+00
(PID.TID 0000.0001) %MON ad_trcstat_adptracer01_sd    =   0.0000000000000E+00
(PID.TID 0000.0001) %MON ad_trcstat_adptracer01_del2  =   0.0000000000000E+00
(PID.TID 0000.0001) %MON ad_trcstat_adptracer02_max   =   0.0000000000000E+00
(PID.TID 0000.0001) %MON ad_trcstat_adptracer02_min   =   0.0000000000000E+00
(PID.TID 0000.0001) %MON ad_trcstat_adptracer02_mean  =   0.0000000000000E+00
(PID.TID 0000.0001) %MON ad_trcstat_adptracer02_sd    =   0.0000000000000E+00
(PID.TID 0000.0001) %MON ad_trcstat_adptracer02_del2  =   0.0000000000000E+00
(PID.TID 0000.0001) %MON ad_trcstat_adptracer03_max   =   1.3412922951931E-18
(PID.TID 0000.0001) %MON ad_trcstat_adptracer03_min   =  -1.3880570840865E-17
(PID.TID 0000.0001) %MON ad_trcstat_adptracer03_mean  =  -4.2969590961308E-22
(PID.TID 0000.0001) %MON ad_trcstat_adptracer03_sd    =   6.7981916039424E-20
(PID.TID 0000.0001) %MON ad_trcstat_adptracer03_del2  =   3.6520359876200E-22
(PID.TID 0000.0001) %MON ad_trcstat_adptracer04_max   =   4.1938595773733E+06
(PID.TID 0000.0001) %MON ad_trcstat_adptracer04_min   =  -3.2296049193383E+07
(PID.TID 0000.0001) %MON ad_trcstat_adptracer04_mean  =  -3.0507560704169E+05
(PID.TID 0000.0001) %MON ad_trcstat_adptracer04_sd    =   2.6971037450251E+06
(PID.TID 0000.0001) %MON ad_trcstat_adptracer04_del2  =   5.6994560485893E+03
(PID.TID 0000.0001) %MON ad_trcstat_adptracer05_max   =   1.1023203942334E+06
(PID.TID 0000.0001) %MON ad_trcstat_adptracer05_min   =  -1.3123872466734E+05
(PID.TID 0000.0001) %MON ad_trcstat_adptracer05_mean  =   1.0454927003636E+04
(PID.TID 0000.0001) %MON ad_trcstat_adptracer05_sd    =   9.2042353587428E+04
(PID.TID 0000.0001) %MON ad_trcstat_adptracer05_del2  =   1.9747967527556E+02
(PID.TID 0000.0001) %MON ad_trcstat_adptracer06_max   =   1.2518010438122E+10
(PID.TID 0000.0001) %MON ad_trcstat_adptracer06_min   =  -1.0092422059656E+10
(PID.TID 0000.0001) %MON ad_trcstat_adptracer06_mean  =   1.1698837556313E+07
(PID.TID 0000.0001) %MON ad_trcstat_adptracer06_sd    =   4.4919249821527E+08
(PID.TID 0000.0001) %MON ad_trcstat_adptracer06_del2  =   1.8409747853572E+06
(PID.TID 0000.0001) %MON ad_trcstat_adptracer07_max   =   0.0000000000000E+00
(PID.TID 0000.0001) %MON ad_trcstat_adptracer07_min   =   0.0000000000000E+00
(PID.TID 0000.0001) %MON ad_trcstat_adptracer07_mean  =   0.0000000000000E+00
(PID.TID 0000.0001) %MON ad_trcstat_adptracer07_sd    =   0.0000000000000E+00
(PID.TID 0000.0001) %MON ad_trcstat_adptracer07_del2  =   0.0000000000000E+00
(PID.TID 0000.0001) %MON ad_trcstat_adptracer08_max   =   0.0000000000000E+00
(PID.TID 0000.0001) %MON ad_trcstat_adptracer08_min   =   0.0000000000000E+00
(PID.TID 0000.0001) %MON ad_trcstat_adptracer08_mean  =   0.0000000000000E+00
(PID.TID 0000.0001) %MON ad_trcstat_adptracer08_sd    =   0.0000000000000E+00
(PID.TID 0000.0001) %MON ad_trcstat_adptracer08_del2  =   0.0000000000000E+00
(PID.TID 0000.0001) %MON ad_trcstat_adptracer09_max   =   0.0000000000000E+00
(PID.TID 0000.0001) %MON ad_trcstat_adptracer09_min   =   0.0000000000000E+00
(PID.TID 0000.0001) %MON ad_trcstat_adptracer09_mean  =   0.0000000000000E+00
(PID.TID 0000.0001) %MON ad_trcstat_adptracer09_sd    =   0.0000000000000E+00
(PID.TID 0000.0001) %MON ad_trcstat_adptracer09_del2  =   0.0000000000000E+00
(PID.TID 0000.0001) // =======================================================
(PID.TID 0000.0001) // End AD_MONITOR ptracer field statistics
(PID.TID 0000.0001) // =======================================================
 cg2d: Sum(rhs),rhsMax =  -1.41175959811335E-12  5.14376312351223E-02
 cg2d: Sum(rhs),rhsMax =   3.01775116895442E-07  9.47710263690026E+00
 cg2d: Sum(rhs),rhsMax =   3.01730253227106E-07  9.47852080979339E+00
 cg2d: Sum(rhs),rhsMax =   3.01685957992959E-07  9.47991425354721E+00
 cg2d: Sum(rhs),rhsMax =   3.01642188560436E-07  9.48129352579243E+00
 cg2d: Sum(rhs),rhsMax =   3.01598291230221E-07  9.48266822894385E+00
 cg2d: Sum(rhs),rhsMax =   2.86163945872886E-07  9.48404676258804E+00
 cg2d: Sum(rhs),rhsMax =  -1.44861900253090E-12  5.56228815054133E-02
 cg2d: Sum(rhs),rhsMax =   3.01775116895442E-07  9.47710263690026E+00
 cg2d: Sum(rhs),rhsMax =   3.01730253227106E-07  9.47852080979339E+00
 cg2d: Sum(rhs),rhsMax =   3.01685957992959E-07  9.47991425354721E+00
 cg2d: Sum(rhs),rhsMax =   3.01642188560436E-07  9.48129352579243E+00
 cg2d: Sum(rhs),rhsMax =  -7.39001713156995E-07  9.48266816172501E+00
 cg2d: Sum(rhs),rhsMax =  -1.42685863124825E-12  5.80740473641579E-02
 cg2d: Sum(rhs),rhsMax =   3.01775116895442E-07  9.47710263690026E+00
 cg2d: Sum(rhs),rhsMax =   3.01730253227106E-07  9.47852080979339E+00
 cg2d: Sum(rhs),rhsMax =   3.01685957992959E-07  9.47991425354721E+00
 cg2d: Sum(rhs),rhsMax =   1.05056295041095E-06  9.48129351080264E+00
 cg2d: Sum(rhs),rhsMax =  -1.55297996684567E-12  5.79627817040387E-02
 cg2d: Sum(rhs),rhsMax =   3.01775116895442E-07  9.47710263690026E+00
 cg2d: Sum(rhs),rhsMax =   3.01730253227106E-07  9.47852080979339E+00
 cg2d: Sum(rhs),rhsMax =  -8.82812891234153E-07  9.47991459680503E+00
 cg2d: Sum(rhs),rhsMax =  -1.60182977992918E-12  5.78098861547932E-02
 cg2d: Sum(rhs),rhsMax =   3.01775116895442E-07  9.47710263690026E+00
 cg2d: Sum(rhs),rhsMax =  -4.21270911488136E-07  9.47852074540734E+00
 cg2d: Sum(rhs),rhsMax =  -1.63558055987778E-12  5.91847218865508E-02
 cg2d: Sum(rhs),rhsMax =   3.01775195055143E-07  9.47710263698549E+00
 cg2d: Sum(rhs),rhsMax =  -1.76392234152445E-12  6.02440345256419E-02
 EXTERNAL_FIELDS_LOAD, it=   3600000 : Reading new data, i0,i1=   12    1 (prev=   12    4 )
 DIC_FIELDS_LOAD, it=   3600000 : Reading new data, i0,i1=   12    1 (prev=   12    0 )
 cg2d: Sum(rhs),rhsMax =   1.69318610687696E-07  8.73439699737069E+00
 cg2d: Sum(rhs),rhsMax =   1.69217777568065E-07  8.73957985685053E+00
 cg2d: Sum(rhs),rhsMax =   1.69116930237578E-07  8.74478996407667E+00
 cg2d: Sum(rhs),rhsMax =   1.69015713424869E-07  8.75002525197054E+00
 cg2d: Sum(rhs),rhsMax =   1.68913977915963E-07  8.75528319149979E+00
 cg2d: Sum(rhs),rhsMax =   1.68812391621032E-07  8.76056091159563E+00
 cg2d: Sum(rhs),rhsMax =   1.68710130310501E-07  8.76585531016545E+00
 cg2d: Sum(rhs),rhsMax =   1.68607783734842E-07  8.77116317961867E+00
 cg2d: Sum(rhs),rhsMax =   1.68505465580893E-07  8.77648131488675E+00
 cg2d: Sum(rhs),rhsMax =   1.68403296640918E-07  8.78180660701903E+00
 cg2d: Sum(rhs),rhsMax =   1.68301063752097E-07  8.78713610702002E+00
 cg2d: Sum(rhs),rhsMax =   1.68199015604387E-07  8.79246706727320E+00
 cg2d: Sum(rhs),rhsMax =   1.68096867980694E-07  8.79779694946195E+00
 cg2d: Sum(rhs),rhsMax =   1.67995075628369E-07  8.80312339652564E+00
 cg2d: Sum(rhs),rhsMax =   1.67893297486899E-07  8.80844419596376E+00
 cg2d: Sum(rhs),rhsMax =   1.67792002514489E-07  8.81375727000352E+00
 cg2d: Sum(rhs),rhsMax =   1.67690991759173E-07  8.81906074076855E+00
 cg2d: Sum(rhs),rhsMax =   1.67590364696935E-07  8.82435302858595E+00
 cg2d: Sum(rhs),rhsMax =   1.67489801583542E-07  8.82963296688162E+00
 cg2d: Sum(rhs),rhsMax =   1.67389771377202E-07  8.83489991268453E+00
 cg2d: Sum(rhs),rhsMax =   1.67290018282529E-07  8.84015381998810E+00
 cg2d: Sum(rhs),rhsMax =   1.67191025468583E-07  8.84539524558423E+00
 cg2d: Sum(rhs),rhsMax =   1.67091911862371E-07  8.85062527386172E+00
 cg2d: Sum(rhs),rhsMax =   1.66993110894964E-07  8.85584539161906E+00
 cg2d: Sum(rhs),rhsMax =   1.66895297581959E-07  8.86105731971219E+00
 cg2d: Sum(rhs),rhsMax =   1.66797214262715E-07  8.86626284368505E+00
 cg2d: Sum(rhs),rhsMax =   1.66699088310907E-07  8.87146368108963E+00
 cg2d: Sum(rhs),rhsMax =   1.66601175521919E-07  8.87666140941337E+00
 cg2d: Sum(rhs),rhsMax =   1.66503703269427E-07  8.88185744320308E+00
 cg2d: Sum(rhs),rhsMax =   1.66406401547192E-07  8.88705304968201E+00
 EXTERNAL_FIELDS_LOAD, it=   3600030 : Reading new data, i0,i1=    1    2 (prev=   12    1 )
 DIC_FIELDS_LOAD, it=   3600030 : Reading new data, i0,i1=    1    2 (prev=   12    1 )
 cg2d: Sum(rhs),rhsMax =   1.66308751659017E-07  8.89224939629417E+00
 cg2d: Sum(rhs),rhsMax =   1.66211989949261E-07  8.89742905273518E+00
 cg2d: Sum(rhs),rhsMax =   1.66115810884548E-07  8.90258194312370E+00
 cg2d: Sum(rhs),rhsMax =   1.66020008407486E-07  8.90769862985287E+00
 cg2d: Sum(rhs),rhsMax =   1.65925222006535E-07  8.91277064894441E+00
 cg2d: Sum(rhs),rhsMax =   1.65832325649262E-07  8.91779073567431E+00
 cg2d: Sum(rhs),rhsMax =   1.65739969304468E-07  8.92275296238945E+00
 cg2d: Sum(rhs),rhsMax =   1.65648664562923E-07  8.92765282308104E+00
 cg2d: Sum(rhs),rhsMax =   1.65559029596807E-07  8.93248727153984E+00
 cg2d: Sum(rhs),rhsMax =   1.65470908086718E-07  8.93725470683360E+00
 cg2d: Sum(rhs),rhsMax =   1.65383411854236E-07  8.94195490169141E+00
 cg2d: Sum(rhs),rhsMax =   1.65297855403423E-07  8.94658889014494E+00
 cg2d: Sum(rhs),rhsMax =   1.65213478453552E-07  8.95115882656284E+00
 cg2d: Sum(rhs),rhsMax =   1.65130131790647E-07  8.95566783046152E+00
 cg2d: Sum(rhs),rhsMax =   1.65047609357316E-07  8.96011984139981E+00
 cg2d: Sum(rhs),rhsMax =   1.64966841964542E-07  8.96451949805779E+00
 cg2d: Sum(rhs),rhsMax =   1.64886614584248E-07  8.96887204401274E+00
 cg2d: Sum(rhs),rhsMax =   1.64807353542074E-07  8.97318325974703E+00
 cg2d: Sum(rhs),rhsMax =   1.64728760410071E-07  8.97745941334167E+00
 cg2d: Sum(rhs),rhsMax =   1.64650550971146E-07  8.98170721084718E+00
 cg2d: Sum(rhs),rhsMax =   1.64573251026923E-07  8.98593374417503E+00
 cg2d: Sum(rhs),rhsMax =   1.64495830290434E-07  8.99014648706113E+00
 cg2d: Sum(rhs),rhsMax =   1.64419148518391E-07  8.99435313191228E+00
 cg2d: Sum(rhs),rhsMax =   1.64342466746348E-07  8.99856143301709E+00
 cg2d: Sum(rhs),rhsMax =   1.64265266278107E-07  9.00277891979376E+00
 cg2d: Sum(rhs),rhsMax =   1.64188094231577E-07  9.00701226475977E+00
 cg2d: Sum(rhs),rhsMax =   1.64110602440815E-07  9.01126800872608E+00
 cg2d: Sum(rhs),rhsMax =   1.64032670113556E-07  9.01555262481054E+00
 cg2d: Sum(rhs),rhsMax =   1.63954233300956E-07  9.01987189615712E+00
 cg2d: Sum(rhs),rhsMax =   1.63875164105320E-07  9.02423093235336E+00
 cg2d: Sum(rhs),rhsMax =   1.63795320418103E-07  9.02863410711437E+00
 cg2d: Sum(rhs),rhsMax =   1.63714346967936E-07  9.03308492807320E+00
 cg2d: Sum(rhs),rhsMax =   1.63633295358068E-07  9.03758589550099E+00
 cg2d: Sum(rhs),rhsMax =   1.63551085563540E-07  9.04213843256992E+00
 cg2d: Sum(rhs),rhsMax =   1.63468094172003E-07  9.04674278808053E+00
 cg2d: Sum(rhs),rhsMax =   1.63383937490380E-07  9.05139800068177E+00
 cg2d: Sum(rhs),rhsMax =   1.63299503697090E-07  9.05610191103194E+00
 cg2d: Sum(rhs),rhsMax =   1.63213783821448E-07  9.06085121060704E+00
 cg2d: Sum(rhs),rhsMax =   1.63127957364395E-07  9.06564152308058E+00
 cg2d: Sum(rhs),rhsMax =   1.63041192990931E-07  9.07046751690403E+00
 cg2d: Sum(rhs),rhsMax =   1.62954130189519E-07  9.07532304700718E+00
 cg2d: Sum(rhs),rhsMax =   1.62866854225285E-07  9.08020131376247E+00
 cg2d: Sum(rhs),rhsMax =   1.62779372203659E-07  9.08509502964907E+00
 cg2d: Sum(rhs),rhsMax =   1.62691954130878E-07  9.08999659239780E+00
 cg2d: Sum(rhs),rhsMax =   1.62604585796089E-07  9.09489817218861E+00
 cg2d: Sum(rhs),rhsMax =   1.62517501678394E-07  9.09979218349167E+00
 cg2d: Sum(rhs),rhsMax =   1.62430644934375E-07  9.10467101498796E+00
 cg2d: Sum(rhs),rhsMax =   1.62344292675698E-07  9.10952746457549E+00
 cg2d: Sum(rhs),rhsMax =   1.62258693592321E-07  9.11435477997425E+00
 cg2d: Sum(rhs),rhsMax =   1.62174011109073E-07  9.11914675387257E+00
 cg2d: Sum(rhs),rhsMax =   1.62089747846039E-07  9.12389782853965E+00
 cg2d: Sum(rhs),rhsMax =   1.62006273285442E-07  9.12860319621454E+00
 cg2d: Sum(rhs),rhsMax =   1.61924113228906E-07  9.13325897230795E+00
 cg2d: Sum(rhs),rhsMax =   1.61842727663952E-07  9.13786227569362E+00
 cg2d: Sum(rhs),rhsMax =   1.61762493178230E-07  9.14241138202085E+00
 cg2d: Sum(rhs),rhsMax =   1.61683040289518E-07  9.14690582567222E+00
 cg2d: Sum(rhs),rhsMax =   1.61604830850592E-07  9.15134644986131E+00
 cg2d: Sum(rhs),rhsMax =   1.61527417219531E-07  9.15573538211935E+00
 cg2d: Sum(rhs),rhsMax =   1.61451261249113E-07  9.16007592950651E+00
 cg2d: Sum(rhs),rhsMax =   1.61375858453994E-07  9.16437240256295E+00
 EXTERNAL_FIELDS_LOAD, it=   3600090 : Reading new data, i0,i1=    2    3 (prev=    1    2 )
 DIC_FIELDS_LOAD, it=   3600090 : Reading new data, i0,i1=    2    3 (prev=    1    2 )
 cg2d: Sum(rhs),rhsMax =   1.61301031198491E-07  9.16862988474514E+00
 cg2d: Sum(rhs),rhsMax =   1.61226488160082E-07  9.17287253571495E+00
 cg2d: Sum(rhs),rhsMax =   1.61152193811631E-07  9.17711746016568E+00
 cg2d: Sum(rhs),rhsMax =   1.61077544191812E-07  9.18138108877058E+00
 cg2d: Sum(rhs),rhsMax =   1.61002326137805E-07  9.18567861304476E+00
 cg2d: Sum(rhs),rhsMax =   1.60926205694523E-07  9.19002353014883E+00
 cg2d: Sum(rhs),rhsMax =   1.60849204178248E-07  9.19442728641192E+00
 cg2d: Sum(rhs),rhsMax =   1.60771165269580E-07  9.19889902438565E+00
 cg2d: Sum(rhs),rhsMax =   1.60691676853730E-07  9.20344543538162E+00
 cg2d: Sum(rhs),rhsMax =   1.60610625243862E-07  9.20807071616803E+00
 cg2d: Sum(rhs),rhsMax =   1.60529111781216E-07  9.21277660183589E+00
 cg2d: Sum(rhs),rhsMax =   1.60445615904337E-07  9.21756247694247E+00
 cg2d: Sum(rhs),rhsMax =   1.60361018686217E-07  9.22242554775714E+00
 cg2d: Sum(rhs),rhsMax =   1.60275249072583E-07  9.22736105179622E+00
 cg2d: Sum(rhs),rhsMax =   1.60188832865060E-07  9.23236249675336E+00
 cg2d: Sum(rhs),rhsMax =   1.60101009782920E-07  9.23742190581730E+00
 cg2d: Sum(rhs),rhsMax =   1.60012376682062E-07  9.24253005999046E+00
 cg2d: Sum(rhs),rhsMax =   1.59923374098980E-07  9.24767675774736E+00
 cg2d: Sum(rhs),rhsMax =   1.59833348334359E-07  9.25285099530738E+00
 cg2d: Sum(rhs),rhsMax =   1.59743947847346E-07  9.25804118480452E+00
 cg2d: Sum(rhs),rhsMax =   1.59654156561828E-07  9.26323537521839E+00
 cg2d: Sum(rhs),rhsMax =   1.59564649493404E-07  9.26842146305946E+00
 cg2d: Sum(rhs),rhsMax =   1.59475810335152E-07  9.27358734254206E+00
 cg2d: Sum(rhs),rhsMax =   1.59387511189379E-07  9.27872091717081E+00
 cg2d: Sum(rhs),rhsMax =   1.59299617052966E-07  9.28381136814303E+00
 cg2d: Sum(rhs),rhsMax =   1.59212980577195E-07  9.28884862895416E+00
 cg2d: Sum(rhs),rhsMax =   1.59127175436424E-07  9.29382345652557E+00
 cg2d: Sum(rhs),rhsMax =   1.59043672454118E-07  9.29872780684878E+00
 cg2d: Sum(rhs),rhsMax =   1.58960915541684E-07  9.30355510475018E+00
 cg2d: Sum(rhs),rhsMax =   1.58879650768995E-07  9.30830036704988E+00
 cg2d: Sum(rhs),rhsMax =   1.58800041560880E-07  9.31296021040285E+00
 cg2d: Sum(rhs),rhsMax =   1.58721938703366E-07  9.31753280098406E+00
 cg2d: Sum(rhs),rhsMax =   1.58645484304998E-07  9.32201775765958E+00
 cg2d: Sum(rhs),rhsMax =   1.58570394148683E-07  9.32641602969786E+00
 cg2d: Sum(rhs),rhsMax =   1.58496945346087E-07  9.33072978578710E+00
 cg2d: Sum(rhs),rhsMax =   1.58424988683237E-07  9.33496230239218E+00
 cg2d: Sum(rhs),rhsMax =   1.58354438895003E-07  9.33911784987238E+00
 cg2d: Sum(rhs),rhsMax =   1.58284855444890E-07  9.34320156451738E+00
 cg2d: Sum(rhs),rhsMax =   1.58217005719052E-07  9.34721929418330E+00
 cg2d: Sum(rhs),rhsMax =   1.58150037066207E-07  9.35117742178592E+00
 cg2d: Sum(rhs),rhsMax =   1.58083715007251E-07  9.35508267492027E+00
 cg2d: Sum(rhs),rhsMax =   1.58018764295775E-07  9.35894192419005E+00
 cg2d: Sum(rhs),rhsMax =   1.57953891744000E-07  9.36276197821802E+00
 cg2d: Sum(rhs),rhsMax =   1.57889999741201E-07  9.36654938518496E+00
 cg2d: Sum(rhs),rhsMax =   1.57826519853188E-07  9.37031025051024E+00
 cg2d: Sum(rhs),rhsMax =   1.57763658137355E-07  9.37405007348543E+00
 cg2d: Sum(rhs),rhsMax =   1.57700689840112E-07  9.37777361441556E+00
 cg2d: Sum(rhs),rhsMax =   1.57638105235947E-07  9.38148479575939E+00
 cg2d: Sum(rhs),rhsMax =   1.57575861692294E-07  9.38518664193280E+00
 cg2d: Sum(rhs),rhsMax =   1.57513689202915E-07  9.38888125563880E+00
 cg2d: Sum(rhs),rhsMax =   1.57451452764690E-07  9.39256983098558E+00
 cg2d: Sum(rhs),rhsMax =   1.57389870025781E-07  9.39625269423587E+00
 cg2d: Sum(rhs),rhsMax =   1.57327839644950E-07  9.39992937198207E+00
 cg2d: Sum(rhs),rhsMax =   1.57266605071982E-07  9.40359867449008E+00
 cg2d: Sum(rhs),rhsMax =   1.57205221285039E-07  9.40725878524180E+00
 cg2d: Sum(rhs),rhsMax =   1.57144384616004E-07  9.41090734419932E+00
 cg2d: Sum(rhs),rhsMax =   1.57083441365558E-07  9.41454153230469E+00
 cg2d: Sum(rhs),rhsMax =   1.57022817859342E-07  9.41815815729745E+00
 cg2d: Sum(rhs),rhsMax =   1.56962848052444E-07  9.42175373864234E+00
 cg2d: Sum(rhs),rhsMax =   1.56903354309179E-07  9.42532458834380E+00
 EXTERNAL_FIELDS_LOAD, it=   3600150 : Reading new data, i0,i1=    3    4 (prev=    2    3 )
 DIC_FIELDS_LOAD, it=   3600150 : Reading new data, i0,i1=    3    4 (prev=    2    3 )
 cg2d: Sum(rhs),rhsMax =   1.56844386367538E-07  9.42886688985512E+00
 cg2d: Sum(rhs),rhsMax =   1.56786050808932E-07  9.43235379724390E+00
 cg2d: Sum(rhs),rhsMax =   1.56729463185457E-07  9.43576817325861E+00
 cg2d: Sum(rhs),rhsMax =   1.56674040852067E-07  9.43909408079935E+00
 cg2d: Sum(rhs),rhsMax =   1.56620934887997E-07  9.44231724780375E+00
 cg2d: Sum(rhs),rhsMax =   1.56569370801662E-07  9.44542544012602E+00
 cg2d: Sum(rhs),rhsMax =   1.56519689653578E-07  9.44840873884622E+00
 cg2d: Sum(rhs),rhsMax =   1.56472822254727E-07  9.45125971609770E+00
 cg2d: Sum(rhs),rhsMax =   1.56427617525878E-07  9.45397350936240E+00
 cg2d: Sum(rhs),rhsMax =   1.56384757588057E-07  9.45654781865251E+00
 cg2d: Sum(rhs),rhsMax =   1.24849993454745E-06  9.45898258698842E+00
 cg2d: Sum(rhs),rhsMax =   1.24819683122723E-06  9.46128088608714E+00
 cg2d: Sum(rhs),rhsMax =   1.24791088040865E-06  9.46344717346840E+00
 cg2d: Sum(rhs),rhsMax =   1.24764189024518E-06  9.46548808721326E+00
 cg2d: Sum(rhs),rhsMax =   1.24738794227142E-06  9.46741195549183E+00
 cg2d: Sum(rhs),rhsMax =   1.24714906490908E-06  9.46922851752029E+00
 cg2d: Sum(rhs),rhsMax =   1.24692252256864E-06  9.47094860432723E+00
 cg2d: Sum(rhs),rhsMax =   1.24670710732744E-06  9.47258385831330E+00
 cg2d: Sum(rhs),rhsMax =   1.24650167521168E-06  9.47414642683325E+00
 cg2d: Sum(rhs),rhsMax =   1.24630402353887E-06  9.47564866175168E+00
 cg2d: Sum(rhs),rhsMax =   1.24849993454745E-06  9.45898258698842E+00
 cg2d: Sum(rhs),rhsMax =   1.24819683122723E-06  9.46128088608714E+00
 cg2d: Sum(rhs),rhsMax =   1.24791088040865E-06  9.46344717346840E+00
 cg2d: Sum(rhs),rhsMax =   1.24764189024518E-06  9.46548808721326E+00
 cg2d: Sum(rhs),rhsMax =   1.24738794227142E-06  9.46741195549183E+00
 cg2d: Sum(rhs),rhsMax =   1.24714906490908E-06  9.46922851752029E+00
 cg2d: Sum(rhs),rhsMax =   1.24692252256864E-06  9.47094860432723E+00
 cg2d: Sum(rhs),rhsMax =   1.24670710732744E-06  9.47258385831330E+00
 cg2d: Sum(rhs),rhsMax =   1.24650167521168E-06  9.47414642683325E+00
 cg2d: Sum(rhs),rhsMax =   6.99659956637788E-07  9.47564837711528E+00
 cg2d: Sum(rhs),rhsMax =  -1.71551661765079E-12  6.09318664253414E-02
 cg2d: Sum(rhs),rhsMax =   1.24849993454745E-06  9.45898258698842E+00
 cg2d: Sum(rhs),rhsMax =   1.24819683122723E-06  9.46128088608714E+00
 cg2d: Sum(rhs),rhsMax =   1.24791088040865E-06  9.46344717346840E+00
 cg2d: Sum(rhs),rhsMax =   1.24764189024518E-06  9.46548808721326E+00
 cg2d: Sum(rhs),rhsMax =   1.24738794227142E-06  9.46741195549183E+00
 cg2d: Sum(rhs),rhsMax =   1.24714906490908E-06  9.46922851752029E+00
 cg2d: Sum(rhs),rhsMax =   1.24692252256864E-06  9.47094860432723E+00
 cg2d: Sum(rhs),rhsMax =   1.24670710732744E-06  9.47258385831330E+00
 cg2d: Sum(rhs),rhsMax =   4.38777192357520E-07  9.47414672113641E+00
 cg2d: Sum(rhs),rhsMax =  -1.83053572300196E-12  6.12560948043374E-02
 cg2d: Sum(rhs),rhsMax =   1.24849993454745E-06  9.45898258698842E+00
 cg2d: Sum(rhs),rhsMax =   1.24819683122723E-06  9.46128088608714E+00
 cg2d: Sum(rhs),rhsMax =   1.24791088040865E-06  9.46344717346840E+00
 cg2d: Sum(rhs),rhsMax =   1.24764189024518E-06  9.46548808721326E+00
 cg2d: Sum(rhs),rhsMax =   1.24738794227142E-06  9.46741195549183E+00
 cg2d: Sum(rhs),rhsMax =   1.24714906490908E-06  9.46922851752029E+00
 cg2d: Sum(rhs),rhsMax =   1.24692252256864E-06  9.47094860432723E+00
 cg2d: Sum(rhs),rhsMax =   1.63844129019708E-06  9.47258368456210E+00
 cg2d: Sum(rhs),rhsMax =  -1.94955163124177E-12  6.13143108285774E-02
 cg2d: Sum(rhs),rhsMax =   1.24849993454745E-06  9.45898258698842E+00
 cg2d: Sum(rhs),rhsMax =   1.24819683122723E-06  9.46128088608714E+00
 cg2d: Sum(rhs),rhsMax =   1.24791088040865E-06  9.46344717346840E+00
 cg2d: Sum(rhs),rhsMax =   1.24764189024518E-06  9.46548808721326E+00
 cg2d: Sum(rhs),rhsMax =   1.24738794227142E-06  9.46741195549183E+00
 cg2d: Sum(rhs),rhsMax =   1.24714906490908E-06  9.46922851752029E+00
 cg2d: Sum(rhs),rhsMax =   7.26941891571187E-07  9.47094889403651E+00
 cg2d: Sum(rhs),rhsMax =  -1.99085192775783E-12  6.11152679146834E-02
 cg2d: Sum(rhs),rhsMax =   1.24849993454745E-06  9.45898258698842E+00
 cg2d: Sum(rhs),rhsMax =   1.24819683122723E-06  9.46128088608714E+00
 cg2d: Sum(rhs),rhsMax =   1.24791088040865E-06  9.46344717346840E+00
 cg2d: Sum(rhs),rhsMax =   1.24764189024518E-06  9.46548808721326E+00
 cg2d: Sum(rhs),rhsMax =   1.24738794227142E-06  9.46741195549183E+00
 cg2d: Sum(rhs),rhsMax =   1.60043891384021E-06  9.46922860642126E+00
 cg2d: Sum(rhs),rhsMax =  -2.00861549615183E-12  6.15498232997967E-02
 cg2d: Sum(rhs),rhsMax =   1.24849993454745E-06  9.45898258698842E+00
 cg2d: Sum(rhs),rhsMax =   1.24819683122723E-06  9.46128088608714E+00
 cg2d: Sum(rhs),rhsMax =   1.24791088040865E-06  9.46344717346840E+00
 cg2d: Sum(rhs),rhsMax =   1.24764189024518E-06  9.46548808721326E+00
 cg2d: Sum(rhs),rhsMax =  -4.04734493031356E-07  9.46741185739420E+00
 cg2d: Sum(rhs),rhsMax =  -2.08455475103619E-12  6.16613952939910E-02
 cg2d: Sum(rhs),rhsMax =   1.24849993454745E-06  9.45898258698842E+00
 cg2d: Sum(rhs),rhsMax =   1.24819683122723E-06  9.46128088608714E+00
 cg2d: Sum(rhs),rhsMax =   1.24791088040865E-06  9.46344717346840E+00
 cg2d: Sum(rhs),rhsMax =   2.11208814704378E-06  9.46548816760462E+00
 cg2d: Sum(rhs),rhsMax =  -2.28528307388842E-12  6.05280385619694E-02
 cg2d: Sum(rhs),rhsMax =   1.24849993454745E-06  9.45898258698842E+00
 cg2d: Sum(rhs),rhsMax =   1.24819683122723E-06  9.46128088608714E+00
 cg2d: Sum(rhs),rhsMax =   5.15433114856023E-07  9.46344752672698E+00
 cg2d: Sum(rhs),rhsMax =  -2.31459296173853E-12  6.00982595658744E-02
 cg2d: Sum(rhs),rhsMax =   1.24849993454745E-06  9.45898258698842E+00
 cg2d: Sum(rhs),rhsMax =   1.86938315493990E-06  9.46128121770719E+00
 cg2d: Sum(rhs),rhsMax =  -2.38697950294409E-12  5.99620137716370E-02
 cg2d: Sum(rhs),rhsMax =   1.24850001981258E-06  9.45898258700447E+00
 cg2d: Sum(rhs),rhsMax =  -2.49400500251795E-12  5.93457620138876E-02
 EXTERNAL_FIELDS_LOAD, it=   3600000 : Reading new data, i0,i1=   12    1 (prev=   12    4 )
 DIC_FIELDS_LOAD, it=   3600000 : Reading new data, i0,i1=   12    1 (prev=   12    0 )
 cg2d: Sum(rhs),rhsMax =   1.69318610687696E-07  8.73439699737069E+00
 cg2d: Sum(rhs),rhsMax =   1.69217777568065E-07  8.73957985685053E+00
 cg2d: Sum(rhs),rhsMax =   1.69116930237578E-07  8.74478996407667E+00
 cg2d: Sum(rhs),rhsMax =   1.69015713424869E-07  8.75002525197054E+00
 cg2d: Sum(rhs),rhsMax =   1.68913977915963E-07  8.75528319149979E+00
 cg2d: Sum(rhs),rhsMax =   1.68812391621032E-07  8.76056091159563E+00
 cg2d: Sum(rhs),rhsMax =   1.68710130310501E-07  8.76585531016545E+00
 cg2d: Sum(rhs),rhsMax =   1.68607783734842E-07  8.77116317961867E+00
 cg2d: Sum(rhs),rhsMax =   1.68505465580893E-07  8.77648131488675E+00
 cg2d: Sum(rhs),rhsMax =   1.68403296640918E-07  8.78180660701903E+00
 cg2d: Sum(rhs),rhsMax =   1.68301063752097E-07  8.78713610702002E+00
 cg2d: Sum(rhs),rhsMax =   1.68199015604387E-07  8.79246706727320E+00
 cg2d: Sum(rhs),rhsMax =   1.68096867980694E-07  8.79779694946195E+00
 cg2d: Sum(rhs),rhsMax =   1.67995075628369E-07  8.80312339652564E+00
 cg2d: Sum(rhs),rhsMax =   1.67893297486899E-07  8.80844419596376E+00
 cg2d: Sum(rhs),rhsMax =   1.67792002514489E-07  8.81375727000352E+00
 cg2d: Sum(rhs),rhsMax =   1.67690991759173E-07  8.81906074076855E+00
 cg2d: Sum(rhs),rhsMax =   1.67590364696935E-07  8.82435302858595E+00
 cg2d: Sum(rhs),rhsMax =   1.67489801583542E-07  8.82963296688162E+00
 cg2d: Sum(rhs),rhsMax =   1.67389771377202E-07  8.83489991268453E+00
 cg2d: Sum(rhs),rhsMax =   1.67290018282529E-07  8.84015381998810E+00
 cg2d: Sum(rhs),rhsMax =   1.67191025468583E-07  8.84539524558423E+00
 cg2d: Sum(rhs),rhsMax =   1.67091911862371E-07  8.85062527386172E+00
 cg2d: Sum(rhs),rhsMax =   1.66993110894964E-07  8.85584539161906E+00
 cg2d: Sum(rhs),rhsMax =   1.66895297581959E-07  8.86105731971219E+00
 cg2d: Sum(rhs),rhsMax =   1.66797214262715E-07  8.86626284368505E+00
 cg2d: Sum(rhs),rhsMax =   1.66699088310907E-07  8.87146368108963E+00
 cg2d: Sum(rhs),rhsMax =   1.66601175521919E-07  8.87666140941337E+00
 cg2d: Sum(rhs),rhsMax =   1.66503703269427E-07  8.88185744320308E+00
 cg2d: Sum(rhs),rhsMax =   1.66406401547192E-07  8.88705304968201E+00
 EXTERNAL_FIELDS_LOAD, it=   3600030 : Reading new data, i0,i1=    1    2 (prev=   12    1 )
 DIC_FIELDS_LOAD, it=   3600030 : Reading new data, i0,i1=    1    2 (prev=   12    1 )
 cg2d: Sum(rhs),rhsMax =   1.66308751659017E-07  8.89224939629417E+00
 cg2d: Sum(rhs),rhsMax =   1.66211989949261E-07  8.89742905273518E+00
 cg2d: Sum(rhs),rhsMax =   1.66115810884548E-07  8.90258194312370E+00
 cg2d: Sum(rhs),rhsMax =   1.66020008407486E-07  8.90769862985287E+00
 cg2d: Sum(rhs),rhsMax =   1.65925222006535E-07  8.91277064894441E+00
 cg2d: Sum(rhs),rhsMax =   1.65832325649262E-07  8.91779073567431E+00
 cg2d: Sum(rhs),rhsMax =   1.65739969304468E-07  8.92275296238945E+00
 cg2d: Sum(rhs),rhsMax =   1.65648664562923E-07  8.92765282308104E+00
 cg2d: Sum(rhs),rhsMax =   1.65559029596807E-07  8.93248727153984E+00
 cg2d: Sum(rhs),rhsMax =   1.65470908086718E-07  8.93725470683360E+00
 cg2d: Sum(rhs),rhsMax =   1.65383411854236E-07  8.94195490169141E+00
 cg2d: Sum(rhs),rhsMax =   1.65297855403423E-07  8.94658889014494E+00
 cg2d: Sum(rhs),rhsMax =   1.65213478453552E-07  8.95115882656284E+00
 cg2d: Sum(rhs),rhsMax =   1.65130131790647E-07  8.95566783046152E+00
 cg2d: Sum(rhs),rhsMax =   1.65047609357316E-07  8.96011984139981E+00
 cg2d: Sum(rhs),rhsMax =   1.64966841964542E-07  8.96451949805779E+00
 cg2d: Sum(rhs),rhsMax =   1.64886614584248E-07  8.96887204401274E+00
 cg2d: Sum(rhs),rhsMax =   1.64807353542074E-07  8.97318325974703E+00
 cg2d: Sum(rhs),rhsMax =   1.64728760410071E-07  8.97745941334167E+00
 cg2d: Sum(rhs),rhsMax =   1.64650550971146E-07  8.98170721084718E+00
 cg2d: Sum(rhs),rhsMax =   1.64573251026923E-07  8.98593374417503E+00
 cg2d: Sum(rhs),rhsMax =   1.64495830290434E-07  8.99014648706113E+00
 cg2d: Sum(rhs),rhsMax =   1.64419148518391E-07  8.99435313191228E+00
 cg2d: Sum(rhs),rhsMax =   1.64342466746348E-07  8.99856143301709E+00
 cg2d: Sum(rhs),rhsMax =   1.64265266278107E-07  9.00277891979376E+00
 cg2d: Sum(rhs),rhsMax =   1.64188094231577E-07  9.00701226475977E+00
 cg2d: Sum(rhs),rhsMax =   1.64110602440815E-07  9.01126800872608E+00
 cg2d: Sum(rhs),rhsMax =   1.64032670113556E-07  9.01555262481054E+00
 cg2d: Sum(rhs),rhsMax =   1.63954233300956E-07  9.01987189615712E+00
 cg2d: Sum(rhs),rhsMax =   1.63875164105320E-07  9.02423093235336E+00
 cg2d: Sum(rhs),rhsMax =   1.63795320418103E-07  9.02863410711437E+00
 cg2d: Sum(rhs),rhsMax =   1.63714346967936E-07  9.03308492807320E+00
 cg2d: Sum(rhs),rhsMax =   1.63633295358068E-07  9.03758589550099E+00
 cg2d: Sum(rhs),rhsMax =   1.63551085563540E-07  9.04213843256992E+00
 cg2d: Sum(rhs),rhsMax =   1.63468094172003E-07  9.04674278808053E+00
 cg2d: Sum(rhs),rhsMax =   1.63383937490380E-07  9.05139800068177E+00
 cg2d: Sum(rhs),rhsMax =   1.63299503697090E-07  9.05610191103194E+00
 cg2d: Sum(rhs),rhsMax =   1.63213783821448E-07  9.06085121060704E+00
 cg2d: Sum(rhs),rhsMax =   1.63127957364395E-07  9.06564152308058E+00
 cg2d: Sum(rhs),rhsMax =   1.63041192990931E-07  9.07046751690403E+00
 cg2d: Sum(rhs),rhsMax =   1.62954130189519E-07  9.07532304700718E+00
 cg2d: Sum(rhs),rhsMax =   1.62866854225285E-07  9.08020131376247E+00
 cg2d: Sum(rhs),rhsMax =   1.62779372203659E-07  9.08509502964907E+00
 cg2d: Sum(rhs),rhsMax =   1.62691954130878E-07  9.08999659239780E+00
 cg2d: Sum(rhs),rhsMax =   1.62604585796089E-07  9.09489817218861E+00
 cg2d: Sum(rhs),rhsMax =   1.62517501678394E-07  9.09979218349167E+00
 cg2d: Sum(rhs),rhsMax =   1.62430644934375E-07  9.10467101498796E+00
 cg2d: Sum(rhs),rhsMax =   1.62344292675698E-07  9.10952746457549E+00
 cg2d: Sum(rhs),rhsMax =   1.62258693592321E-07  9.11435477997425E+00
 cg2d: Sum(rhs),rhsMax =   1.62174011109073E-07  9.11914675387257E+00
 cg2d: Sum(rhs),rhsMax =   1.62089747846039E-07  9.12389782853965E+00
 cg2d: Sum(rhs),rhsMax =   1.62006273285442E-07  9.12860319621454E+00
 cg2d: Sum(rhs),rhsMax =   1.61924113228906E-07  9.13325897230795E+00
 cg2d: Sum(rhs),rhsMax =   1.61842727663952E-07  9.13786227569362E+00
 cg2d: Sum(rhs),rhsMax =   1.61762493178230E-07  9.14241138202085E+00
 cg2d: Sum(rhs),rhsMax =   1.61683040289518E-07  9.14690582567222E+00
 cg2d: Sum(rhs),rhsMax =   1.61604830850592E-07  9.15134644986131E+00
 cg2d: Sum(rhs),rhsMax =   1.61527417219531E-07  9.15573538211935E+00
 cg2d: Sum(rhs),rhsMax =   1.61451261249113E-07  9.16007592950651E+00
 cg2d: Sum(rhs),rhsMax =   1.61375858453994E-07  9.16437240256295E+00
 EXTERNAL_FIELDS_LOAD, it=   3600090 : Reading new data, i0,i1=    2    3 (prev=    1    2 )
 DIC_FIELDS_LOAD, it=   3600090 : Reading new data, i0,i1=    2    3 (prev=    1    2 )
 cg2d: Sum(rhs),rhsMax =   1.61301031198491E-07  9.16862988474514E+00
 cg2d: Sum(rhs),rhsMax =   1.61226488160082E-07  9.17287253571495E+00
 cg2d: Sum(rhs),rhsMax =   1.61152193811631E-07  9.17711746016568E+00
 cg2d: Sum(rhs),rhsMax =   1.61077544191812E-07  9.18138108877058E+00
 cg2d: Sum(rhs),rhsMax =   1.61002326137805E-07  9.18567861304476E+00
 cg2d: Sum(rhs),rhsMax =   1.60926205694523E-07  9.19002353014883E+00
 cg2d: Sum(rhs),rhsMax =   1.60849204178248E-07  9.19442728641192E+00
 cg2d: Sum(rhs),rhsMax =   1.60771165269580E-07  9.19889902438565E+00
 cg2d: Sum(rhs),rhsMax =   1.60691676853730E-07  9.20344543538162E+00
 cg2d: Sum(rhs),rhsMax =   1.60610625243862E-07  9.20807071616803E+00
 cg2d: Sum(rhs),rhsMax =   1.60529111781216E-07  9.21277660183589E+00
 cg2d: Sum(rhs),rhsMax =   1.60445615904337E-07  9.21756247694247E+00
 cg2d: Sum(rhs),rhsMax =   1.60361018686217E-07  9.22242554775714E+00
 cg2d: Sum(rhs),rhsMax =   1.60275249072583E-07  9.22736105179622E+00
 cg2d: Sum(rhs),rhsMax =   1.60188832865060E-07  9.23236249675336E+00
 cg2d: Sum(rhs),rhsMax =   1.60101009782920E-07  9.23742190581730E+00
 cg2d: Sum(rhs),rhsMax =   1.60012376682062E-07  9.24253005999046E+00
 cg2d: Sum(rhs),rhsMax =   1.59923374098980E-07  9.24767675774736E+00
 cg2d: Sum(rhs),rhsMax =   1.59833348334359E-07  9.25285099530738E+00
 cg2d: Sum(rhs),rhsMax =   1.59743947847346E-07  9.25804118480452E+00
 cg2d: Sum(rhs),rhsMax =   1.59654156561828E-07  9.26323537521839E+00
 cg2d: Sum(rhs),rhsMax =   1.59564649493404E-07  9.26842146305946E+00
 cg2d: Sum(rhs),rhsMax =   1.59475810335152E-07  9.27358734254206E+00
 cg2d: Sum(rhs),rhsMax =   1.59387511189379E-07  9.27872091717081E+00
 cg2d: Sum(rhs),rhsMax =   1.59299617052966E-07  9.28381136814303E+00
 cg2d: Sum(rhs),rhsMax =   1.59212980577195E-07  9.28884862895416E+00
 cg2d: Sum(rhs),rhsMax =   1.59127175436424E-07  9.29382345652557E+00
 cg2d: Sum(rhs),rhsMax =   1.59043672454118E-07  9.29872780684878E+00
 cg2d: Sum(rhs),rhsMax =   1.58960915541684E-07  9.30355510475018E+00
 cg2d: Sum(rhs),rhsMax =   1.58879650768995E-07  9.30830036704988E+00
 cg2d: Sum(rhs),rhsMax =   1.58800041560880E-07  9.31296021040285E+00
 cg2d: Sum(rhs),rhsMax =   1.58721938703366E-07  9.31753280098406E+00
 cg2d: Sum(rhs),rhsMax =   1.58645484304998E-07  9.32201775765958E+00
 cg2d: Sum(rhs),rhsMax =   1.58570394148683E-07  9.32641602969786E+00
 cg2d: Sum(rhs),rhsMax =   1.58496945346087E-07  9.33072978578710E+00
 cg2d: Sum(rhs),rhsMax =   1.58424988683237E-07  9.33496230239218E+00
 cg2d: Sum(rhs),rhsMax =   1.58354438895003E-07  9.33911784987238E+00
 cg2d: Sum(rhs),rhsMax =   1.58284855444890E-07  9.34320156451738E+00
 cg2d: Sum(rhs),rhsMax =   1.58217005719052E-07  9.34721929418330E+00
 cg2d: Sum(rhs),rhsMax =   1.58150037066207E-07  9.35117742178592E+00
 cg2d: Sum(rhs),rhsMax =   1.58083715007251E-07  9.35508267492027E+00
 cg2d: Sum(rhs),rhsMax =   1.58018764295775E-07  9.35894192419005E+00
 cg2d: Sum(rhs),rhsMax =   1.57953891744000E-07  9.36276197821802E+00
 cg2d: Sum(rhs),rhsMax =   1.57889999741201E-07  9.36654938518496E+00
 cg2d: Sum(rhs),rhsMax =   1.57826519853188E-07  9.37031025051024E+00
 cg2d: Sum(rhs),rhsMax =   1.57763658137355E-07  9.37405007348543E+00
 cg2d: Sum(rhs),rhsMax =   1.57700689840112E-07  9.37777361441556E+00
 cg2d: Sum(rhs),rhsMax =   1.57638105235947E-07  9.38148479575939E+00
 cg2d: Sum(rhs),rhsMax =   1.57575861692294E-07  9.38518664193280E+00
 cg2d: Sum(rhs),rhsMax =   1.57513689202915E-07  9.38888125563880E+00
 cg2d: Sum(rhs),rhsMax =   1.57451452764690E-07  9.39256983098558E+00
 cg2d: Sum(rhs),rhsMax =   1.57389870025781E-07  9.39625269423587E+00
 cg2d: Sum(rhs),rhsMax =   1.57327839644950E-07  9.39992937198207E+00
 cg2d: Sum(rhs),rhsMax =   1.57266605071982E-07  9.40359867449008E+00
 cg2d: Sum(rhs),rhsMax =   1.57205221285039E-07  9.40725878524180E+00
 cg2d: Sum(rhs),rhsMax =   1.57144384616004E-07  9.41090734419932E+00
 cg2d: Sum(rhs),rhsMax =   1.57083441365558E-07  9.41454153230469E+00
 cg2d: Sum(rhs),rhsMax =   1.57022817859342E-07  9.41815815729745E+00
 cg2d: Sum(rhs),rhsMax =   1.56962848052444E-07  9.42175373864234E+00
 cg2d: Sum(rhs),rhsMax =   1.56903354309179E-07  9.42532458834380E+00
 EXTERNAL_FIELDS_LOAD, it=   3600150 : Reading new data, i0,i1=    3    4 (prev=    2    3 )
 DIC_FIELDS_LOAD, it=   3600150 : Reading new data, i0,i1=    3    4 (prev=    2    3 )
 cg2d: Sum(rhs),rhsMax =   7.22916681183960E-07  9.42886657842004E+00
 cg2d: Sum(rhs),rhsMax =   7.22649353690485E-07  9.43235347225850E+00
 cg2d: Sum(rhs),rhsMax =   7.22387440532657E-07  9.43576779886252E+00
 cg2d: Sum(rhs),rhsMax =   7.22133329134067E-07  9.43909360929865E+00
 cg2d: Sum(rhs),rhsMax =   7.21886550536510E-07  9.44231663207422E+00
 cg2d: Sum(rhs),rhsMax =   7.21649101365074E-07  9.44542464181189E+00
 cg2d: Sum(rhs),rhsMax =   7.21421272942280E-07  9.44840773209204E+00
 cg2d: Sum(rhs),rhsMax =   7.21203591069752E-07  9.45125848869899E+00
 cg2d: Sum(rhs),rhsMax =   7.20996339964586E-07  9.45397206243193E+00
 cg2d: Sum(rhs),rhsMax =   7.20800215958661E-07  9.45654616496666E+00
 EXTERNAL_FIELDS_LOAD, it=   3600150 : Reading new data, i0,i1=    3    4 (prev=    2    4 )
 DIC_FIELDS_LOAD, it=   3600150 : Reading new data, i0,i1=    3    4 (prev=    2    3 )
 cg2d: Sum(rhs),rhsMax =   7.22916681183960E-07  9.42886657842004E+00
 cg2d: Sum(rhs),rhsMax =   7.22649353690485E-07  9.43235347225850E+00
 cg2d: Sum(rhs),rhsMax =   7.22387440532657E-07  9.43576779886252E+00
 cg2d: Sum(rhs),rhsMax =   7.22133329134067E-07  9.43909360929865E+00
 cg2d: Sum(rhs),rhsMax =   7.21886550536510E-07  9.44231663207422E+00
 cg2d: Sum(rhs),rhsMax =   7.21649101365074E-07  9.44542464181189E+00
 cg2d: Sum(rhs),rhsMax =   7.21421272942280E-07  9.44840773209204E+00
 cg2d: Sum(rhs),rhsMax =   7.21203591069752E-07  9.45125848869899E+00
 cg2d: Sum(rhs),rhsMax =   7.20996339964586E-07  9.45397206243193E+00
 cg2d: Sum(rhs),rhsMax =   9.52604992221495E-07  9.45654612468655E+00
 cg2d: Sum(rhs),rhsMax =  -2.56283883004471E-12  5.81620417531222E-02
 EXTERNAL_FIELDS_LOAD, it=   3600150 : Reading new data, i0,i1=    3    4 (prev=    2    4 )
 DIC_FIELDS_LOAD, it=   3600150 : Reading new data, i0,i1=    3    4 (prev=    2    3 )
 cg2d: Sum(rhs),rhsMax =   7.22916681183960E-07  9.42886657842004E+00
 cg2d: Sum(rhs),rhsMax =   7.22649353690485E-07  9.43235347225850E+00
 cg2d: Sum(rhs),rhsMax =   7.22387440532657E-07  9.43576779886252E+00
 cg2d: Sum(rhs),rhsMax =   7.22133329134067E-07  9.43909360929865E+00
 cg2d: Sum(rhs),rhsMax =   7.21886550536510E-07  9.44231663207422E+00
 cg2d: Sum(rhs),rhsMax =   7.21649101365074E-07  9.44542464181189E+00
 cg2d: Sum(rhs),rhsMax =   7.21421272942280E-07  9.44840773209204E+00
 cg2d: Sum(rhs),rhsMax =   7.21203591069752E-07  9.45125848869899E+00
 cg2d: Sum(rhs),rhsMax =   1.09659939795392E-06  9.45397214700926E+00
 cg2d: Sum(rhs),rhsMax =  -2.78133072129094E-12  5.67379324228746E-02
 EXTERNAL_FIELDS_LOAD, it=   3600150 : Reading new data, i0,i1=    3    4 (prev=    2    4 )
 DIC_FIELDS_LOAD, it=   3600150 : Reading new data, i0,i1=    3    4 (prev=    2    3 )
 cg2d: Sum(rhs),rhsMax =   7.22916681183960E-07  9.42886657842004E+00
 cg2d: Sum(rhs),rhsMax =   7.22649353690485E-07  9.43235347225850E+00
 cg2d: Sum(rhs),rhsMax =   7.22387440532657E-07  9.43576779886252E+00
 cg2d: Sum(rhs),rhsMax =   7.22133329134067E-07  9.43909360929865E+00
 cg2d: Sum(rhs),rhsMax =   7.21886550536510E-07  9.44231663207422E+00
 cg2d: Sum(rhs),rhsMax =   7.21649101365074E-07  9.44542464181189E+00
 cg2d: Sum(rhs),rhsMax =   7.21421272942280E-07  9.44840773209204E+00
 cg2d: Sum(rhs),rhsMax =   7.77465075429973E-07  9.45125874971487E+00
 cg2d: Sum(rhs),rhsMax =  -2.92255109002326E-12  5.53112728460500E-02
 EXTERNAL_FIELDS_LOAD, it=   3600150 : Reading new data, i0,i1=    3    4 (prev=    2    4 )
 DIC_FIELDS_LOAD, it=   3600150 : Reading new data, i0,i1=    3    4 (prev=    2    3 )
 cg2d: Sum(rhs),rhsMax =   7.22916681183960E-07  9.42886657842004E+00
 cg2d: Sum(rhs),rhsMax =   7.22649353690485E-07  9.43235347225850E+00
 cg2d: Sum(rhs),rhsMax =   7.22387440532657E-07  9.43576779886252E+00
 cg2d: Sum(rhs),rhsMax =   7.22133329134067E-07  9.43909360929865E+00
 cg2d: Sum(rhs),rhsMax =   7.21886550536510E-07  9.44231663207422E+00
 cg2d: Sum(rhs),rhsMax =   7.21649101365074E-07  9.44542464181189E+00
 cg2d: Sum(rhs),rhsMax =   1.46811628098931E-06  9.44840805096371E+00
 cg2d: Sum(rhs),rhsMax =  -3.05799829902753E-12  5.45919445446970E-02
 EXTERNAL_FIELDS_LOAD, it=   3600150 : Reading new data, i0,i1=    3    4 (prev=    2    4 )
 DIC_FIELDS_LOAD, it=   3600150 : Reading new data, i0,i1=    3    4 (prev=    2    3 )
 cg2d: Sum(rhs),rhsMax =   7.22916681183960E-07  9.42886657842004E+00
 cg2d: Sum(rhs),rhsMax =   7.22649353690485E-07  9.43235347225850E+00
 cg2d: Sum(rhs),rhsMax =   7.22387440532657E-07  9.43576779886252E+00
 cg2d: Sum(rhs),rhsMax =   7.22133329134067E-07  9.43909360929865E+00
 cg2d: Sum(rhs),rhsMax =   7.21886550536510E-07  9.44231663207422E+00
 cg2d: Sum(rhs),rhsMax =   5.25836334475116E-07  9.44542451900646E+00
 cg2d: Sum(rhs),rhsMax =  -3.11484171788834E-12  5.53024310082573E-02
 EXTERNAL_FIELDS_LOAD, it=   3600150 : Reading new data, i0,i1=    3    4 (prev=    2    4 )
 DIC_FIELDS_LOAD, it=   3600150 : Reading new data, i0,i1=    3    4 (prev=    2    3 )
 cg2d: Sum(rhs),rhsMax =   7.22916681183960E-07  9.42886657842004E+00
 cg2d: Sum(rhs),rhsMax =   7.22649353690485E-07  9.43235347225850E+00
 cg2d: Sum(rhs),rhsMax =   7.22387440532657E-07  9.43576779886252E+00
 cg2d: Sum(rhs),rhsMax =   7.22133329134067E-07  9.43909360929865E+00
 cg2d: Sum(rhs),rhsMax =   8.37123778296700E-07  9.44231661276470E+00
 cg2d: Sum(rhs),rhsMax =  -3.09308134660569E-12  5.57718199773844E-02
 EXTERNAL_FIELDS_LOAD, it=   3600150 : Reading new data, i0,i1=    3    4 (prev=    2    4 )
 DIC_FIELDS_LOAD, it=   3600150 : Reading new data, i0,i1=    3    4 (prev=    2    3 )
 cg2d: Sum(rhs),rhsMax =   7.22916681183960E-07  9.42886657842004E+00
 cg2d: Sum(rhs),rhsMax =   7.22649353690485E-07  9.43235347225850E+00
 cg2d: Sum(rhs),rhsMax =   7.22387440532657E-07  9.43576779886252E+00
 cg2d: Sum(rhs),rhsMax =   5.85953337406409E-07  9.43909377297528E+00
 cg2d: Sum(rhs),rhsMax =  -3.31246141627162E-12  5.41058774685126E-02
 EXTERNAL_FIELDS_LOAD, it=   3600150 : Reading new data, i0,i1=    3    4 (prev=    2    4 )
 DIC_FIELDS_LOAD, it=   3600150 : Reading new data, i0,i1=    3    4 (prev=    2    3 )
 cg2d: Sum(rhs),rhsMax =   7.22916681183960E-07  9.42886657842004E+00
 cg2d: Sum(rhs),rhsMax =   7.22649353690485E-07  9.43235347225850E+00
 cg2d: Sum(rhs),rhsMax =   1.22515749723107E-06  9.43576806094789E+00
 cg2d: Sum(rhs),rhsMax =  -3.22764037719026E-12  5.67737435335574E-02
 EXTERNAL_FIELDS_LOAD, it=   3600150 : Reading new data, i0,i1=    3    4 (prev=    2    4 )
 DIC_FIELDS_LOAD, it=   3600150 : Reading new data, i0,i1=    3    4 (prev=    2    3 )
 cg2d: Sum(rhs),rhsMax =   7.22916681183960E-07  9.42886657842004E+00
 cg2d: Sum(rhs),rhsMax =   4.14058305864273E-07  9.43235343470516E+00
 cg2d: Sum(rhs),rhsMax =  -3.05844238823738E-12  6.12379569149831E-02
 EXTERNAL_FIELDS_LOAD, it=   3600150 : Reading new data, i0,i1=    3    4 (prev=    2    4 )
 DIC_FIELDS_LOAD, it=   3600150 : Reading new data, i0,i1=    3    4 (prev=    2    3 )
 cg2d: Sum(rhs),rhsMax =   7.22916666973106E-07  9.42886657847456E+00
 cg2d: Sum(rhs),rhsMax =  -3.13304937549219E-12  6.19234699884369E-02
 EXTERNAL_FIELDS_LOAD, it=   3600000 : Reading new data, i0,i1=   12    1 (prev=   12    4 )
 DIC_FIELDS_LOAD, it=   3600000 : Reading new data, i0,i1=   12    1 (prev=   12    0 )
 cg2d: Sum(rhs),rhsMax =   1.69318610687696E-07  8.73439699737069E+00
 cg2d: Sum(rhs),rhsMax =   1.69217777568065E-07  8.73957985685053E+00
 cg2d: Sum(rhs),rhsMax =   1.69116930237578E-07  8.74478996407667E+00
 cg2d: Sum(rhs),rhsMax =   1.69015713424869E-07  8.75002525197054E+00
 cg2d: Sum(rhs),rhsMax =   1.68913977915963E-07  8.75528319149979E+00
 cg2d: Sum(rhs),rhsMax =   1.68812391621032E-07  8.76056091159563E+00
 cg2d: Sum(rhs),rhsMax =   1.68710130310501E-07  8.76585531016545E+00
 cg2d: Sum(rhs),rhsMax =   1.68607783734842E-07  8.77116317961867E+00
 cg2d: Sum(rhs),rhsMax =   1.68505465580893E-07  8.77648131488675E+00
 cg2d: Sum(rhs),rhsMax =   1.68403296640918E-07  8.78180660701903E+00
 cg2d: Sum(rhs),rhsMax =   1.68301063752097E-07  8.78713610702002E+00
 cg2d: Sum(rhs),rhsMax =   1.68199015604387E-07  8.79246706727320E+00
 cg2d: Sum(rhs),rhsMax =   1.68096867980694E-07  8.79779694946195E+00
 cg2d: Sum(rhs),rhsMax =   1.67995075628369E-07  8.80312339652564E+00
 cg2d: Sum(rhs),rhsMax =   1.67893297486899E-07  8.80844419596376E+00
 cg2d: Sum(rhs),rhsMax =   1.67792002514489E-07  8.81375727000352E+00
 cg2d: Sum(rhs),rhsMax =   1.67690991759173E-07  8.81906074076855E+00
 cg2d: Sum(rhs),rhsMax =   1.67590364696935E-07  8.82435302858595E+00
 cg2d: Sum(rhs),rhsMax =   1.67489801583542E-07  8.82963296688162E+00
 cg2d: Sum(rhs),rhsMax =   1.67389771377202E-07  8.83489991268453E+00
 cg2d: Sum(rhs),rhsMax =   1.67290018282529E-07  8.84015381998810E+00
 cg2d: Sum(rhs),rhsMax =   1.67191025468583E-07  8.84539524558423E+00
 cg2d: Sum(rhs),rhsMax =   1.67091911862371E-07  8.85062527386172E+00
 cg2d: Sum(rhs),rhsMax =   1.66993110894964E-07  8.85584539161906E+00
 cg2d: Sum(rhs),rhsMax =   1.66895297581959E-07  8.86105731971219E+00
 cg2d: Sum(rhs),rhsMax =   1.66797214262715E-07  8.86626284368505E+00
 cg2d: Sum(rhs),rhsMax =   1.66699088310907E-07  8.87146368108963E+00
 cg2d: Sum(rhs),rhsMax =   1.66601175521919E-07  8.87666140941337E+00
 cg2d: Sum(rhs),rhsMax =   1.66503703269427E-07  8.88185744320308E+00
 cg2d: Sum(rhs),rhsMax =   1.66406401547192E-07  8.88705304968201E+00
 EXTERNAL_FIELDS_LOAD, it=   3600030 : Reading new data, i0,i1=    1    2 (prev=   12    1 )
 DIC_FIELDS_LOAD, it=   3600030 : Reading new data, i0,i1=    1    2 (prev=   12    1 )
 cg2d: Sum(rhs),rhsMax =   1.66308751659017E-07  8.89224939629417E+00
 cg2d: Sum(rhs),rhsMax =   1.66211989949261E-07  8.89742905273518E+00
 cg2d: Sum(rhs),rhsMax =   1.66115810884548E-07  8.90258194312370E+00
 cg2d: Sum(rhs),rhsMax =   1.66020008407486E-07  8.90769862985287E+00
 cg2d: Sum(rhs),rhsMax =   1.65925222006535E-07  8.91277064894441E+00
 cg2d: Sum(rhs),rhsMax =   1.65832325649262E-07  8.91779073567431E+00
 cg2d: Sum(rhs),rhsMax =   1.65739969304468E-07  8.92275296238945E+00
 cg2d: Sum(rhs),rhsMax =   1.65648664562923E-07  8.92765282308104E+00
 cg2d: Sum(rhs),rhsMax =   1.65559029596807E-07  8.93248727153984E+00
 cg2d: Sum(rhs),rhsMax =   1.65470908086718E-07  8.93725470683360E+00
 cg2d: Sum(rhs),rhsMax =   1.65383411854236E-07  8.94195490169141E+00
 cg2d: Sum(rhs),rhsMax =   1.65297855403423E-07  8.94658889014494E+00
 cg2d: Sum(rhs),rhsMax =   1.65213478453552E-07  8.95115882656284E+00
 cg2d: Sum(rhs),rhsMax =   1.65130131790647E-07  8.95566783046152E+00
 cg2d: Sum(rhs),rhsMax =   1.65047609357316E-07  8.96011984139981E+00
 cg2d: Sum(rhs),rhsMax =   1.64966841964542E-07  8.96451949805779E+00
 cg2d: Sum(rhs),rhsMax =   1.64886614584248E-07  8.96887204401274E+00
 cg2d: Sum(rhs),rhsMax =   1.64807353542074E-07  8.97318325974703E+00
 cg2d: Sum(rhs),rhsMax =   1.64728760410071E-07  8.97745941334167E+00
 cg2d: Sum(rhs),rhsMax =   1.64650550971146E-07  8.98170721084718E+00
 cg2d: Sum(rhs),rhsMax =   1.64573251026923E-07  8.98593374417503E+00
 cg2d: Sum(rhs),rhsMax =   1.64495830290434E-07  8.99014648706113E+00
 cg2d: Sum(rhs),rhsMax =   1.64419148518391E-07  8.99435313191228E+00
 cg2d: Sum(rhs),rhsMax =   1.64342466746348E-07  8.99856143301709E+00
 cg2d: Sum(rhs),rhsMax =   1.64265266278107E-07  9.00277891979376E+00
 cg2d: Sum(rhs),rhsMax =   1.64188094231577E-07  9.00701226475977E+00
 cg2d: Sum(rhs),rhsMax =   1.64110602440815E-07  9.01126800872608E+00
 cg2d: Sum(rhs),rhsMax =   1.64032670113556E-07  9.01555262481054E+00
 cg2d: Sum(rhs),rhsMax =   1.63954233300956E-07  9.01987189615712E+00
 cg2d: Sum(rhs),rhsMax =   1.63875164105320E-07  9.02423093235336E+00
 cg2d: Sum(rhs),rhsMax =   1.63795320418103E-07  9.02863410711437E+00
 cg2d: Sum(rhs),rhsMax =   1.63714346967936E-07  9.03308492807320E+00
 cg2d: Sum(rhs),rhsMax =   1.63633295358068E-07  9.03758589550099E+00
 cg2d: Sum(rhs),rhsMax =   1.63551085563540E-07  9.04213843256992E+00
 cg2d: Sum(rhs),rhsMax =   1.63468094172003E-07  9.04674278808053E+00
 cg2d: Sum(rhs),rhsMax =   1.63383937490380E-07  9.05139800068177E+00
 cg2d: Sum(rhs),rhsMax =   1.63299503697090E-07  9.05610191103194E+00
 cg2d: Sum(rhs),rhsMax =   1.63213783821448E-07  9.06085121060704E+00
 cg2d: Sum(rhs),rhsMax =   1.63127957364395E-07  9.06564152308058E+00
 cg2d: Sum(rhs),rhsMax =   1.63041192990931E-07  9.07046751690403E+00
 cg2d: Sum(rhs),rhsMax =   1.62954130189519E-07  9.07532304700718E+00
 cg2d: Sum(rhs),rhsMax =   1.62866854225285E-07  9.08020131376247E+00
 cg2d: Sum(rhs),rhsMax =   1.62779372203659E-07  9.08509502964907E+00
 cg2d: Sum(rhs),rhsMax =   1.62691954130878E-07  9.08999659239780E+00
 cg2d: Sum(rhs),rhsMax =   1.62604585796089E-07  9.09489817218861E+00
 cg2d: Sum(rhs),rhsMax =   1.62517501678394E-07  9.09979218349167E+00
 cg2d: Sum(rhs),rhsMax =   1.62430644934375E-07  9.10467101498796E+00
 cg2d: Sum(rhs),rhsMax =   1.62344292675698E-07  9.10952746457549E+00
 cg2d: Sum(rhs),rhsMax =   1.62258693592321E-07  9.11435477997425E+00
 cg2d: Sum(rhs),rhsMax =   1.62174011109073E-07  9.11914675387257E+00
 cg2d: Sum(rhs),rhsMax =   1.62089747846039E-07  9.12389782853965E+00
 cg2d: Sum(rhs),rhsMax =   1.62006273285442E-07  9.12860319621454E+00
 cg2d: Sum(rhs),rhsMax =   1.61924113228906E-07  9.13325897230795E+00
 cg2d: Sum(rhs),rhsMax =   1.61842727663952E-07  9.13786227569362E+00
 cg2d: Sum(rhs),rhsMax =   1.61762493178230E-07  9.14241138202085E+00
 cg2d: Sum(rhs),rhsMax =   1.61683040289518E-07  9.14690582567222E+00
 cg2d: Sum(rhs),rhsMax =   1.61604830850592E-07  9.15134644986131E+00
 cg2d: Sum(rhs),rhsMax =   1.61527417219531E-07  9.15573538211935E+00
 cg2d: Sum(rhs),rhsMax =   1.61451261249113E-07  9.16007592950651E+00
 cg2d: Sum(rhs),rhsMax =   1.61375858453994E-07  9.16437240256295E+00
 EXTERNAL_FIELDS_LOAD, it=   3600090 : Reading new data, i0,i1=    2    3 (prev=    1    2 )
 DIC_FIELDS_LOAD, it=   3600090 : Reading new data, i0,i1=    2    3 (prev=    1    2 )
 cg2d: Sum(rhs),rhsMax =   1.61301031198491E-07  9.16862988474514E+00
 cg2d: Sum(rhs),rhsMax =   1.61226488160082E-07  9.17287253571495E+00
 cg2d: Sum(rhs),rhsMax =   1.61152193811631E-07  9.17711746016568E+00
 cg2d: Sum(rhs),rhsMax =   1.61077544191812E-07  9.18138108877058E+00
 cg2d: Sum(rhs),rhsMax =   1.61002326137805E-07  9.18567861304476E+00
 cg2d: Sum(rhs),rhsMax =   1.60926205694523E-07  9.19002353014883E+00
 cg2d: Sum(rhs),rhsMax =   1.60849204178248E-07  9.19442728641192E+00
 cg2d: Sum(rhs),rhsMax =   1.60771165269580E-07  9.19889902438565E+00
 cg2d: Sum(rhs),rhsMax =   1.60691676853730E-07  9.20344543538162E+00
 cg2d: Sum(rhs),rhsMax =   1.60610625243862E-07  9.20807071616803E+00
 cg2d: Sum(rhs),rhsMax =   1.60529111781216E-07  9.21277660183589E+00
 cg2d: Sum(rhs),rhsMax =   1.60445615904337E-07  9.21756247694247E+00
 cg2d: Sum(rhs),rhsMax =   1.60361018686217E-07  9.22242554775714E+00
 cg2d: Sum(rhs),rhsMax =   1.60275249072583E-07  9.22736105179622E+00
 cg2d: Sum(rhs),rhsMax =   1.60188832865060E-07  9.23236249675336E+00
 cg2d: Sum(rhs),rhsMax =   1.60101009782920E-07  9.23742190581730E+00
 cg2d: Sum(rhs),rhsMax =   1.60012376682062E-07  9.24253005999046E+00
 cg2d: Sum(rhs),rhsMax =   1.59923374098980E-07  9.24767675774736E+00
 cg2d: Sum(rhs),rhsMax =   1.59833348334359E-07  9.25285099530738E+00
 cg2d: Sum(rhs),rhsMax =   1.59743947847346E-07  9.25804118480452E+00
 cg2d: Sum(rhs),rhsMax =   1.59654156561828E-07  9.26323537521839E+00
 cg2d: Sum(rhs),rhsMax =   1.59564649493404E-07  9.26842146305946E+00
 cg2d: Sum(rhs),rhsMax =   1.59475810335152E-07  9.27358734254206E+00
 cg2d: Sum(rhs),rhsMax =   1.59387511189379E-07  9.27872091717081E+00
 cg2d: Sum(rhs),rhsMax =   1.59299617052966E-07  9.28381136814303E+00
 cg2d: Sum(rhs),rhsMax =   1.59212980577195E-07  9.28884862895416E+00
 cg2d: Sum(rhs),rhsMax =   1.59127175436424E-07  9.29382345652557E+00
 cg2d: Sum(rhs),rhsMax =   1.59043672454118E-07  9.29872780684878E+00
 cg2d: Sum(rhs),rhsMax =   1.58960915541684E-07  9.30355510475018E+00
 cg2d: Sum(rhs),rhsMax =   1.58879650768995E-07  9.30830036704988E+00
 cg2d: Sum(rhs),rhsMax =   1.58800041560880E-07  9.31296021040285E+00
 cg2d: Sum(rhs),rhsMax =   1.58721938703366E-07  9.31753280098406E+00
 cg2d: Sum(rhs),rhsMax =   1.58645484304998E-07  9.32201775765958E+00
 cg2d: Sum(rhs),rhsMax =   1.58570394148683E-07  9.32641602969786E+00
 cg2d: Sum(rhs),rhsMax =   1.58496945346087E-07  9.33072978578710E+00
 cg2d: Sum(rhs),rhsMax =   1.58424988683237E-07  9.33496230239218E+00
 cg2d: Sum(rhs),rhsMax =   1.58354438895003E-07  9.33911784987238E+00
 cg2d: Sum(rhs),rhsMax =   1.58284855444890E-07  9.34320156451738E+00
 cg2d: Sum(rhs),rhsMax =   1.58217005719052E-07  9.34721929418330E+00
 cg2d: Sum(rhs),rhsMax =   1.58150037066207E-07  9.35117742178592E+00
 cg2d: Sum(rhs),rhsMax =   1.58083715007251E-07  9.35508267492027E+00
 cg2d: Sum(rhs),rhsMax =   1.58018764295775E-07  9.35894192419005E+00
 cg2d: Sum(rhs),rhsMax =   1.57953891744000E-07  9.36276197821802E+00
 cg2d: Sum(rhs),rhsMax =   1.57889999741201E-07  9.36654938518496E+00
 cg2d: Sum(rhs),rhsMax =   1.57826519853188E-07  9.37031025051024E+00
 cg2d: Sum(rhs),rhsMax =   1.57763658137355E-07  9.37405007348543E+00
 cg2d: Sum(rhs),rhsMax =   1.57700689840112E-07  9.37777361441556E+00
 cg2d: Sum(rhs),rhsMax =   1.57638105235947E-07  9.38148479575939E+00
 cg2d: Sum(rhs),rhsMax =   1.57575861692294E-07  9.38518664193280E+00
 cg2d: Sum(rhs),rhsMax =   1.57513689202915E-07  9.38888125563880E+00
 cg2d: Sum(rhs),rhsMax =   1.44993322237497E-07  9.39256952271372E+00
 cg2d: Sum(rhs),rhsMax =   1.44936294077525E-07  9.39625236779617E+00
 cg2d: Sum(rhs),rhsMax =   1.44879585661783E-07  9.39992899629445E+00
 cg2d: Sum(rhs),rhsMax =   1.44822664083222E-07  9.40359822166780E+00
 cg2d: Sum(rhs),rhsMax =   1.44766147514019E-07  9.40725824066232E+00
 cg2d: Sum(rhs),rhsMax =   1.44709986216185E-07  9.41090670878751E+00
 cg2d: Sum(rhs),rhsMax =   1.44653995448607E-07  9.41454081989424E+00
 cg2d: Sum(rhs),rhsMax =   1.44598416795816E-07  9.41815739020601E+00
 cg2d: Sum(rhs),rhsMax =   1.44542973146145E-07  9.42175294314105E+00
 cg2d: Sum(rhs),rhsMax =   1.44488417674893E-07  9.42532379076250E+00
 cg2d: Sum(rhs),rhsMax =   1.44993322237497E-07  9.39256952271372E+00
 cg2d: Sum(rhs),rhsMax =   1.44936294077525E-07  9.39625236779617E+00
 cg2d: Sum(rhs),rhsMax =   1.44879585661783E-07  9.39992899629445E+00
 cg2d: Sum(rhs),rhsMax =   1.44822664083222E-07  9.40359822166780E+00
 cg2d: Sum(rhs),rhsMax =   1.44766147514019E-07  9.40725824066232E+00
 cg2d: Sum(rhs),rhsMax =   1.44709986216185E-07  9.41090670878751E+00
 cg2d: Sum(rhs),rhsMax =   1.44653995448607E-07  9.41454081989424E+00
 cg2d: Sum(rhs),rhsMax =   1.44598416795816E-07  9.41815739020601E+00
 cg2d: Sum(rhs),rhsMax =   1.44542973146145E-07  9.42175294314105E+00
 cg2d: Sum(rhs),rhsMax =   2.28550000258565E-07  9.42532399144439E+00
 cg2d: Sum(rhs),rhsMax =  -3.37241345960138E-12  5.91493675290604E-02
 cg2d: Sum(rhs),rhsMax =   1.44993322237497E-07  9.39256952271372E+00
 cg2d: Sum(rhs),rhsMax =   1.44936294077525E-07  9.39625236779617E+00
 cg2d: Sum(rhs),rhsMax =   1.44879585661783E-07  9.39992899629445E+00
 cg2d: Sum(rhs),rhsMax =   1.44822664083222E-07  9.40359822166780E+00
 cg2d: Sum(rhs),rhsMax =   1.44766147514019E-07  9.40725824066232E+00
 cg2d: Sum(rhs),rhsMax =   1.44709986216185E-07  9.41090670878751E+00
 cg2d: Sum(rhs),rhsMax =   1.44653995448607E-07  9.41454081989424E+00
 cg2d: Sum(rhs),rhsMax =   1.44598416795816E-07  9.41815739020601E+00
 cg2d: Sum(rhs),rhsMax =  -1.78582007492878E-06  9.42175258594882E+00
 cg2d: Sum(rhs),rhsMax =  -3.57092133640435E-12  5.71786662301248E-02
 cg2d: Sum(rhs),rhsMax =   1.44993322237497E-07  9.39256952271372E+00
 cg2d: Sum(rhs),rhsMax =   1.44936294077525E-07  9.39625236779617E+00
 cg2d: Sum(rhs),rhsMax =   1.44879585661783E-07  9.39992899629445E+00
 cg2d: Sum(rhs),rhsMax =   1.44822664083222E-07  9.40359822166780E+00
 cg2d: Sum(rhs),rhsMax =   1.44766147514019E-07  9.40725824066232E+00
 cg2d: Sum(rhs),rhsMax =   1.44709986216185E-07  9.41090670878751E+00
 cg2d: Sum(rhs),rhsMax =   1.44653995448607E-07  9.41454081989424E+00
 cg2d: Sum(rhs),rhsMax =   1.02242330513036E-06  9.41815715953657E+00
 cg2d: Sum(rhs),rhsMax =  -3.64019925314096E-12  5.64304964726907E-02
 cg2d: Sum(rhs),rhsMax =   1.44993322237497E-07  9.39256952271372E+00
 cg2d: Sum(rhs),rhsMax =   1.44936294077525E-07  9.39625236779617E+00
 cg2d: Sum(rhs),rhsMax =   1.44879585661783E-07  9.39992899629445E+00
 cg2d: Sum(rhs),rhsMax =   1.44822664083222E-07  9.40359822166780E+00
 cg2d: Sum(rhs),rhsMax =   1.44766147514019E-07  9.40725824066232E+00
 cg2d: Sum(rhs),rhsMax =   1.44709986216185E-07  9.41090670878751E+00
 cg2d: Sum(rhs),rhsMax =   1.82954615013387E-07  9.41454105557054E+00
 cg2d: Sum(rhs),rhsMax =  -3.58824081558851E-12  5.85584169291971E-02
 cg2d: Sum(rhs),rhsMax =   1.44993322237497E-07  9.39256952271372E+00
 cg2d: Sum(rhs),rhsMax =   1.44936294077525E-07  9.39625236779617E+00
 cg2d: Sum(rhs),rhsMax =   1.44879585661783E-07  9.39992899629445E+00
 cg2d: Sum(rhs),rhsMax =   1.44822664083222E-07  9.40359822166780E+00
 cg2d: Sum(rhs),rhsMax =   1.44766147514019E-07  9.40725824066232E+00
 cg2d: Sum(rhs),rhsMax =  -4.95933250022063E-09  9.41090691282214E+00
 cg2d: Sum(rhs),rhsMax =  -3.65263375101677E-12  6.00133547185347E-02
 cg2d: Sum(rhs),rhsMax =   1.44993322237497E-07  9.39256952271372E+00
 cg2d: Sum(rhs),rhsMax =   1.44936294077525E-07  9.39625236779617E+00
 cg2d: Sum(rhs),rhsMax =   1.44879585661783E-07  9.39992899629445E+00
 cg2d: Sum(rhs),rhsMax =   1.44822664083222E-07  9.40359822166780E+00
 cg2d: Sum(rhs),rhsMax =  -9.31752126120955E-07  9.40725823691926E+00
 cg2d: Sum(rhs),rhsMax =  -3.75477426928228E-12  5.93466103589200E-02
 cg2d: Sum(rhs),rhsMax =   1.44993322237497E-07  9.39256952271372E+00
 cg2d: Sum(rhs),rhsMax =   1.44936294077525E-07  9.39625236779617E+00
 cg2d: Sum(rhs),rhsMax =   1.44879585661783E-07  9.39992899629445E+00
 cg2d: Sum(rhs),rhsMax =  -2.35512146673500E-07  9.40359783898517E+00
 cg2d: Sum(rhs),rhsMax =  -3.92663679349425E-12  5.81880092917934E-02
 cg2d: Sum(rhs),rhsMax =   1.44993322237497E-07  9.39256952271372E+00
 cg2d: Sum(rhs),rhsMax =   1.44936294077525E-07  9.39625236779617E+00
 cg2d: Sum(rhs),rhsMax =  -5.54209407255257E-08  9.39992861357769E+00
 cg2d: Sum(rhs),rhsMax =  -4.04520861252422E-12  5.74838527687154E-02
 cg2d: Sum(rhs),rhsMax =   1.44993322237497E-07  9.39256952271372E+00
 cg2d: Sum(rhs),rhsMax =  -7.93636473872539E-07  9.39625200185302E+00
 cg2d: Sum(rhs),rhsMax =  -4.18065582152849E-12  5.70704544716604E-02
 cg2d: Sum(rhs),rhsMax =   1.44993002493266E-07  9.39256952276477E+00
 cg2d: Sum(rhs),rhsMax =  -4.30766533554561E-12  5.63966806081700E-02
 EXTERNAL_FIELDS_LOAD, it=   3600000 : Reading new data, i0,i1=   12    1 (prev=   12    3 )
 DIC_FIELDS_LOAD, it=   3600000 : Reading new data, i0,i1=   12    1 (prev=   12    0 )
 cg2d: Sum(rhs),rhsMax =   1.69318610687696E-07  8.73439699737069E+00
 cg2d: Sum(rhs),rhsMax =   1.69217777568065E-07  8.73957985685053E+00
 cg2d: Sum(rhs),rhsMax =   1.69116930237578E-07  8.74478996407667E+00
 cg2d: Sum(rhs),rhsMax =   1.69015713424869E-07  8.75002525197054E+00
 cg2d: Sum(rhs),rhsMax =   1.68913977915963E-07  8.75528319149979E+00
 cg2d: Sum(rhs),rhsMax =   1.68812391621032E-07  8.76056091159563E+00
 cg2d: Sum(rhs),rhsMax =   1.68710130310501E-07  8.76585531016545E+00
 cg2d: Sum(rhs),rhsMax =   1.68607783734842E-07  8.77116317961867E+00
 cg2d: Sum(rhs),rhsMax =   1.68505465580893E-07  8.77648131488675E+00
 cg2d: Sum(rhs),rhsMax =   1.68403296640918E-07  8.78180660701903E+00
 cg2d: Sum(rhs),rhsMax =   1.68301063752097E-07  8.78713610702002E+00
 cg2d: Sum(rhs),rhsMax =   1.68199015604387E-07  8.79246706727320E+00
 cg2d: Sum(rhs),rhsMax =   1.68096867980694E-07  8.79779694946195E+00
 cg2d: Sum(rhs),rhsMax =   1.67995075628369E-07  8.80312339652564E+00
 cg2d: Sum(rhs),rhsMax =   1.67893297486899E-07  8.80844419596376E+00
 cg2d: Sum(rhs),rhsMax =   1.67792002514489E-07  8.81375727000352E+00
 cg2d: Sum(rhs),rhsMax =   1.67690991759173E-07  8.81906074076855E+00
 cg2d: Sum(rhs),rhsMax =   1.67590364696935E-07  8.82435302858595E+00
 cg2d: Sum(rhs),rhsMax =   1.67489801583542E-07  8.82963296688162E+00
 cg2d: Sum(rhs),rhsMax =   1.67389771377202E-07  8.83489991268453E+00
 cg2d: Sum(rhs),rhsMax =   1.67290018282529E-07  8.84015381998810E+00
 cg2d: Sum(rhs),rhsMax =   1.67191025468583E-07  8.84539524558423E+00
 cg2d: Sum(rhs),rhsMax =   1.67091911862371E-07  8.85062527386172E+00
 cg2d: Sum(rhs),rhsMax =   1.66993110894964E-07  8.85584539161906E+00
 cg2d: Sum(rhs),rhsMax =   1.66895297581959E-07  8.86105731971219E+00
 cg2d: Sum(rhs),rhsMax =   1.66797214262715E-07  8.86626284368505E+00
 cg2d: Sum(rhs),rhsMax =   1.66699088310907E-07  8.87146368108963E+00
 cg2d: Sum(rhs),rhsMax =   1.66601175521919E-07  8.87666140941337E+00
 cg2d: Sum(rhs),rhsMax =   1.66503703269427E-07  8.88185744320308E+00
 cg2d: Sum(rhs),rhsMax =   1.66406401547192E-07  8.88705304968201E+00
 EXTERNAL_FIELDS_LOAD, it=   3600030 : Reading new data, i0,i1=    1    2 (prev=   12    1 )
 DIC_FIELDS_LOAD, it=   3600030 : Reading new data, i0,i1=    1    2 (prev=   12    1 )
 cg2d: Sum(rhs),rhsMax =   1.66308751659017E-07  8.89224939629417E+00
 cg2d: Sum(rhs),rhsMax =   1.66211989949261E-07  8.89742905273518E+00
 cg2d: Sum(rhs),rhsMax =   1.66115810884548E-07  8.90258194312370E+00
 cg2d: Sum(rhs),rhsMax =   1.66020008407486E-07  8.90769862985287E+00
 cg2d: Sum(rhs),rhsMax =   1.65925222006535E-07  8.91277064894441E+00
 cg2d: Sum(rhs),rhsMax =   1.65832325649262E-07  8.91779073567431E+00
 cg2d: Sum(rhs),rhsMax =   1.65739969304468E-07  8.92275296238945E+00
 cg2d: Sum(rhs),rhsMax =   1.65648664562923E-07  8.92765282308104E+00
 cg2d: Sum(rhs),rhsMax =   1.65559029596807E-07  8.93248727153984E+00
 cg2d: Sum(rhs),rhsMax =   1.65470908086718E-07  8.93725470683360E+00
 cg2d: Sum(rhs),rhsMax =   1.65383411854236E-07  8.94195490169141E+00
 cg2d: Sum(rhs),rhsMax =   1.65297855403423E-07  8.94658889014494E+00
 cg2d: Sum(rhs),rhsMax =   1.65213478453552E-07  8.95115882656284E+00
 cg2d: Sum(rhs),rhsMax =   1.65130131790647E-07  8.95566783046152E+00
 cg2d: Sum(rhs),rhsMax =   1.65047609357316E-07  8.96011984139981E+00
 cg2d: Sum(rhs),rhsMax =   1.64966841964542E-07  8.96451949805779E+00
 cg2d: Sum(rhs),rhsMax =   1.64886614584248E-07  8.96887204401274E+00
 cg2d: Sum(rhs),rhsMax =   1.64807353542074E-07  8.97318325974703E+00
 cg2d: Sum(rhs),rhsMax =   1.64728760410071E-07  8.97745941334167E+00
 cg2d: Sum(rhs),rhsMax =   1.64650550971146E-07  8.98170721084718E+00
 cg2d: Sum(rhs),rhsMax =   1.64573251026923E-07  8.98593374417503E+00
 cg2d: Sum(rhs),rhsMax =   1.64495830290434E-07  8.99014648706113E+00
 cg2d: Sum(rhs),rhsMax =   1.64419148518391E-07  8.99435313191228E+00
 cg2d: Sum(rhs),rhsMax =   1.64342466746348E-07  8.99856143301709E+00
 cg2d: Sum(rhs),rhsMax =   1.64265266278107E-07  9.00277891979376E+00
 cg2d: Sum(rhs),rhsMax =   1.64188094231577E-07  9.00701226475977E+00
 cg2d: Sum(rhs),rhsMax =   1.64110602440815E-07  9.01126800872608E+00
 cg2d: Sum(rhs),rhsMax =   1.64032670113556E-07  9.01555262481054E+00
 cg2d: Sum(rhs),rhsMax =   1.63954233300956E-07  9.01987189615712E+00
 cg2d: Sum(rhs),rhsMax =   1.63875164105320E-07  9.02423093235336E+00
 cg2d: Sum(rhs),rhsMax =   1.63795320418103E-07  9.02863410711437E+00
 cg2d: Sum(rhs),rhsMax =   1.63714346967936E-07  9.03308492807320E+00
 cg2d: Sum(rhs),rhsMax =   1.63633295358068E-07  9.03758589550099E+00
 cg2d: Sum(rhs),rhsMax =   1.63551085563540E-07  9.04213843256992E+00
 cg2d: Sum(rhs),rhsMax =   1.63468094172003E-07  9.04674278808053E+00
 cg2d: Sum(rhs),rhsMax =   1.63383937490380E-07  9.05139800068177E+00
 cg2d: Sum(rhs),rhsMax =   1.63299503697090E-07  9.05610191103194E+00
 cg2d: Sum(rhs),rhsMax =   1.63213783821448E-07  9.06085121060704E+00
 cg2d: Sum(rhs),rhsMax =   1.63127957364395E-07  9.06564152308058E+00
 cg2d: Sum(rhs),rhsMax =   1.63041192990931E-07  9.07046751690403E+00
 cg2d: Sum(rhs),rhsMax =   1.62954130189519E-07  9.07532304700718E+00
 cg2d: Sum(rhs),rhsMax =   1.62866854225285E-07  9.08020131376247E+00
 cg2d: Sum(rhs),rhsMax =   1.62779372203659E-07  9.08509502964907E+00
 cg2d: Sum(rhs),rhsMax =   1.62691954130878E-07  9.08999659239780E+00
 cg2d: Sum(rhs),rhsMax =   1.62604585796089E-07  9.09489817218861E+00
 cg2d: Sum(rhs),rhsMax =   1.62517501678394E-07  9.09979218349167E+00
 cg2d: Sum(rhs),rhsMax =   1.62430644934375E-07  9.10467101498796E+00
 cg2d: Sum(rhs),rhsMax =   1.62344292675698E-07  9.10952746457549E+00
 cg2d: Sum(rhs),rhsMax =   1.62258693592321E-07  9.11435477997425E+00
 cg2d: Sum(rhs),rhsMax =   1.62174011109073E-07  9.11914675387257E+00
 cg2d: Sum(rhs),rhsMax =   1.62089747846039E-07  9.12389782853965E+00
 cg2d: Sum(rhs),rhsMax =   1.62006273285442E-07  9.12860319621454E+00
 cg2d: Sum(rhs),rhsMax =   1.61924113228906E-07  9.13325897230795E+00
 cg2d: Sum(rhs),rhsMax =   1.61842727663952E-07  9.13786227569362E+00
 cg2d: Sum(rhs),rhsMax =   1.61762493178230E-07  9.14241138202085E+00
 cg2d: Sum(rhs),rhsMax =   1.61683040289518E-07  9.14690582567222E+00
 cg2d: Sum(rhs),rhsMax =   1.61604830850592E-07  9.15134644986131E+00
 cg2d: Sum(rhs),rhsMax =   1.61527417219531E-07  9.15573538211935E+00
 cg2d: Sum(rhs),rhsMax =   1.61451261249113E-07  9.16007592950651E+00
 cg2d: Sum(rhs),rhsMax =   1.61375858453994E-07  9.16437240256295E+00
 EXTERNAL_FIELDS_LOAD, it=   3600090 : Reading new data, i0,i1=    2    3 (prev=    1    2 )
 DIC_FIELDS_LOAD, it=   3600090 : Reading new data, i0,i1=    2    3 (prev=    1    2 )
 cg2d: Sum(rhs),rhsMax =   1.61301031198491E-07  9.16862988474514E+00
 cg2d: Sum(rhs),rhsMax =   1.61226488160082E-07  9.17287253571495E+00
 cg2d: Sum(rhs),rhsMax =   1.61152193811631E-07  9.17711746016568E+00
 cg2d: Sum(rhs),rhsMax =   1.61077544191812E-07  9.18138108877058E+00
 cg2d: Sum(rhs),rhsMax =   1.61002326137805E-07  9.18567861304476E+00
 cg2d: Sum(rhs),rhsMax =   1.60926205694523E-07  9.19002353014883E+00
 cg2d: Sum(rhs),rhsMax =   1.60849204178248E-07  9.19442728641192E+00
 cg2d: Sum(rhs),rhsMax =   1.60771165269580E-07  9.19889902438565E+00
 cg2d: Sum(rhs),rhsMax =   1.60691676853730E-07  9.20344543538162E+00
 cg2d: Sum(rhs),rhsMax =   1.60610625243862E-07  9.20807071616803E+00
 cg2d: Sum(rhs),rhsMax =   1.60529111781216E-07  9.21277660183589E+00
 cg2d: Sum(rhs),rhsMax =   1.60445615904337E-07  9.21756247694247E+00
 cg2d: Sum(rhs),rhsMax =   1.60361018686217E-07  9.22242554775714E+00
 cg2d: Sum(rhs),rhsMax =   1.60275249072583E-07  9.22736105179622E+00
 cg2d: Sum(rhs),rhsMax =   1.60188832865060E-07  9.23236249675336E+00
 cg2d: Sum(rhs),rhsMax =   1.60101009782920E-07  9.23742190581730E+00
 cg2d: Sum(rhs),rhsMax =   1.60012376682062E-07  9.24253005999046E+00
 cg2d: Sum(rhs),rhsMax =   1.59923374098980E-07  9.24767675774736E+00
 cg2d: Sum(rhs),rhsMax =   1.59833348334359E-07  9.25285099530738E+00
 cg2d: Sum(rhs),rhsMax =   1.59743947847346E-07  9.25804118480452E+00
 cg2d: Sum(rhs),rhsMax =   1.59654156561828E-07  9.26323537521839E+00
 cg2d: Sum(rhs),rhsMax =   1.59564649493404E-07  9.26842146305946E+00
 cg2d: Sum(rhs),rhsMax =   1.59475810335152E-07  9.27358734254206E+00
 cg2d: Sum(rhs),rhsMax =   1.59387511189379E-07  9.27872091717081E+00
 cg2d: Sum(rhs),rhsMax =   1.59299617052966E-07  9.28381136814303E+00
 cg2d: Sum(rhs),rhsMax =   1.59212980577195E-07  9.28884862895416E+00
 cg2d: Sum(rhs),rhsMax =   1.59127175436424E-07  9.29382345652557E+00
 cg2d: Sum(rhs),rhsMax =   1.59043672454118E-07  9.29872780684878E+00
 cg2d: Sum(rhs),rhsMax =   1.58960915541684E-07  9.30355510475018E+00
 cg2d: Sum(rhs),rhsMax =   1.58879650768995E-07  9.30830036704988E+00
 cg2d: Sum(rhs),rhsMax =   1.58800041560880E-07  9.31296021040285E+00
 cg2d: Sum(rhs),rhsMax =   1.58721938703366E-07  9.31753280098406E+00
 cg2d: Sum(rhs),rhsMax =   1.58645484304998E-07  9.32201775765958E+00
 cg2d: Sum(rhs),rhsMax =   1.58570394148683E-07  9.32641602969786E+00
 cg2d: Sum(rhs),rhsMax =   1.58496945346087E-07  9.33072978578710E+00
 cg2d: Sum(rhs),rhsMax =   1.58424988683237E-07  9.33496230239218E+00
 cg2d: Sum(rhs),rhsMax =   1.58354438895003E-07  9.33911784987238E+00
 cg2d: Sum(rhs),rhsMax =   1.58284855444890E-07  9.34320156451738E+00
 cg2d: Sum(rhs),rhsMax =   1.58217005719052E-07  9.34721929418330E+00
 cg2d: Sum(rhs),rhsMax =   1.58150037066207E-07  9.35117742178592E+00
 cg2d: Sum(rhs),rhsMax =   7.23490671816762E-08  9.35508236914244E+00
 cg2d: Sum(rhs),rhsMax =   7.23191249107913E-08  9.35894161073938E+00
 cg2d: Sum(rhs),rhsMax =   7.22894384352912E-08  9.36276163335240E+00
 cg2d: Sum(rhs),rhsMax =   7.22600859148770E-08  9.36654897997925E+00
 cg2d: Sum(rhs),rhsMax =   7.22309465572835E-08  9.37030975638154E+00
 cg2d: Sum(rhs),rhsMax =   7.22020132570833E-08  9.37404946594279E+00
 cg2d: Sum(rhs),rhsMax =   7.21730728514558E-08  9.37777287427301E+00
 cg2d: Sum(rhs),rhsMax =   7.21444450846320E-08  9.38148390822626E+00
 cg2d: Sum(rhs),rhsMax =   7.21156112604149E-08  9.38518559479824E+00
 cg2d: Sum(rhs),rhsMax =   7.20872392889760E-08  9.38888003780676E+00
 cg2d: Sum(rhs),rhsMax =   7.23490671816762E-08  9.35508236914244E+00
 cg2d: Sum(rhs),rhsMax =   7.23191249107913E-08  9.35894161073938E+00
 cg2d: Sum(rhs),rhsMax =   7.22894384352912E-08  9.36276163335240E+00
 cg2d: Sum(rhs),rhsMax =   7.22600859148770E-08  9.36654897997925E+00
 cg2d: Sum(rhs),rhsMax =   7.22309465572835E-08  9.37030975638154E+00
 cg2d: Sum(rhs),rhsMax =   7.22020132570833E-08  9.37404946594279E+00
 cg2d: Sum(rhs),rhsMax =   7.21730728514558E-08  9.37777287427301E+00
 cg2d: Sum(rhs),rhsMax =   7.21444450846320E-08  9.38148390822626E+00
 cg2d: Sum(rhs),rhsMax =   7.21156112604149E-08  9.38518559479824E+00
 cg2d: Sum(rhs),rhsMax =  -9.68138635926152E-07  9.38888032780955E+00
 cg2d: Sum(rhs),rhsMax =  -4.44710934743853E-12  5.54908453549408E-02
 cg2d: Sum(rhs),rhsMax =   7.23490671816762E-08  9.35508236914244E+00
 cg2d: Sum(rhs),rhsMax =   7.23191249107913E-08  9.35894161073938E+00
 cg2d: Sum(rhs),rhsMax =   7.22894384352912E-08  9.36276163335240E+00
 cg2d: Sum(rhs),rhsMax =   7.22600859148770E-08  9.36654897997925E+00
 cg2d: Sum(rhs),rhsMax =   7.22309465572835E-08  9.37030975638154E+00
 cg2d: Sum(rhs),rhsMax =   7.22020132570833E-08  9.37404946594279E+00
 cg2d: Sum(rhs),rhsMax =   7.21730728514558E-08  9.37777287427301E+00
 cg2d: Sum(rhs),rhsMax =   7.21444450846320E-08  9.38148390822626E+00
 cg2d: Sum(rhs),rhsMax =  -6.11105157588554E-07  9.38518560140634E+00
 cg2d: Sum(rhs),rhsMax =  -4.47508696765908E-12  5.75165115553928E-02
 cg2d: Sum(rhs),rhsMax =   7.23490671816762E-08  9.35508236914244E+00
 cg2d: Sum(rhs),rhsMax =   7.23191249107913E-08  9.35894161073938E+00
 cg2d: Sum(rhs),rhsMax =   7.22894384352912E-08  9.36276163335240E+00
 cg2d: Sum(rhs),rhsMax =   7.22600859148770E-08  9.36654897997925E+00
 cg2d: Sum(rhs),rhsMax =   7.22309465572835E-08  9.37030975638154E+00
 cg2d: Sum(rhs),rhsMax =   7.22020132570833E-08  9.37404946594279E+00
 cg2d: Sum(rhs),rhsMax =   7.21730728514558E-08  9.37777287427301E+00
 cg2d: Sum(rhs),rhsMax =  -8.83206219270960E-07  9.38148378720835E+00
 cg2d: Sum(rhs),rhsMax =  -4.48130421659698E-12  5.70734902457784E-02
 cg2d: Sum(rhs),rhsMax =   7.23490671816762E-08  9.35508236914244E+00
 cg2d: Sum(rhs),rhsMax =   7.23191249107913E-08  9.35894161073938E+00
 cg2d: Sum(rhs),rhsMax =   7.22894384352912E-08  9.36276163335240E+00
 cg2d: Sum(rhs),rhsMax =   7.22600859148770E-08  9.36654897997925E+00
 cg2d: Sum(rhs),rhsMax =   7.22309465572835E-08  9.37030975638154E+00
 cg2d: Sum(rhs),rhsMax =   7.22020132570833E-08  9.37404946594279E+00
 cg2d: Sum(rhs),rhsMax =   5.31845522289132E-07  9.37777267723896E+00
 cg2d: Sum(rhs),rhsMax =  -4.51816362101454E-12  5.76807526669787E-02
 cg2d: Sum(rhs),rhsMax =   7.23490671816762E-08  9.35508236914244E+00
 cg2d: Sum(rhs),rhsMax =   7.23191249107913E-08  9.35894161073938E+00
 cg2d: Sum(rhs),rhsMax =   7.22894384352912E-08  9.36276163335240E+00
 cg2d: Sum(rhs),rhsMax =   7.22600859148770E-08  9.36654897997925E+00
 cg2d: Sum(rhs),rhsMax =   7.22309465572835E-08  9.37030975638154E+00
 cg2d: Sum(rhs),rhsMax =  -3.02359211445946E-07  9.37404927143264E+00
 cg2d: Sum(rhs),rhsMax =  -4.53503901098884E-12  5.97548563592430E-02
 cg2d: Sum(rhs),rhsMax =   7.23490671816762E-08  9.35508236914244E+00
 cg2d: Sum(rhs),rhsMax =   7.23191249107913E-08  9.35894161073938E+00
 cg2d: Sum(rhs),rhsMax =   7.22894384352912E-08  9.36276163335240E+00
 cg2d: Sum(rhs),rhsMax =   7.22600859148770E-08  9.36654897997925E+00
 cg2d: Sum(rhs),rhsMax =  -4.86946397870724E-07  9.37030969915775E+00
 cg2d: Sum(rhs),rhsMax =  -4.58921789459055E-12  5.99574124929695E-02
 cg2d: Sum(rhs),rhsMax =   7.23490671816762E-08  9.35508236914244E+00
 cg2d: Sum(rhs),rhsMax =   7.23191249107913E-08  9.35894161073938E+00
 cg2d: Sum(rhs),rhsMax =   7.22894384352912E-08  9.36276163335240E+00
 cg2d: Sum(rhs),rhsMax =   9.27959277419177E-07  9.36654920757394E+00
 cg2d: Sum(rhs),rhsMax =  -4.67048621999311E-12  6.00352867245495E-02
 cg2d: Sum(rhs),rhsMax =   7.23490671816762E-08  9.35508236914244E+00
 cg2d: Sum(rhs),rhsMax =   7.23191249107913E-08  9.35894161073938E+00
 cg2d: Sum(rhs),rhsMax =   1.07517865899354E-06  9.36276136701623E+00
 cg2d: Sum(rhs),rhsMax =  -4.83879603052628E-12  5.87929420713187E-02
 cg2d: Sum(rhs),rhsMax =   7.23490671816762E-08  9.35508236914244E+00
 cg2d: Sum(rhs),rhsMax =   1.04145790658094E-07  9.35894186320713E+00
 cg2d: Sum(rhs),rhsMax =  -5.01287900078751E-12  5.88700285529980E-02
 cg2d: Sum(rhs),rhsMax =   7.23489108622744E-08  9.35508236953834E+00
 cg2d: Sum(rhs),rhsMax =  -5.00666175184961E-12  5.96651618442370E-02
 EXTERNAL_FIELDS_LOAD, it=   3600000 : Reading new data, i0,i1=   12    1 (prev=   12    3 )
 DIC_FIELDS_LOAD, it=   3600000 : Reading new data, i0,i1=   12    1 (prev=   12    0 )
 cg2d: Sum(rhs),rhsMax =   1.69318610687696E-07  8.73439699737069E+00
 cg2d: Sum(rhs),rhsMax =   1.69217777568065E-07  8.73957985685053E+00
 cg2d: Sum(rhs),rhsMax =   1.69116930237578E-07  8.74478996407667E+00
 cg2d: Sum(rhs),rhsMax =   1.69015713424869E-07  8.75002525197054E+00
 cg2d: Sum(rhs),rhsMax =   1.68913977915963E-07  8.75528319149979E+00
 cg2d: Sum(rhs),rhsMax =   1.68812391621032E-07  8.76056091159563E+00
 cg2d: Sum(rhs),rhsMax =   1.68710130310501E-07  8.76585531016545E+00
 cg2d: Sum(rhs),rhsMax =   1.68607783734842E-07  8.77116317961867E+00
 cg2d: Sum(rhs),rhsMax =   1.68505465580893E-07  8.77648131488675E+00
 cg2d: Sum(rhs),rhsMax =   1.68403296640918E-07  8.78180660701903E+00
 cg2d: Sum(rhs),rhsMax =   1.68301063752097E-07  8.78713610702002E+00
 cg2d: Sum(rhs),rhsMax =   1.68199015604387E-07  8.79246706727320E+00
 cg2d: Sum(rhs),rhsMax =   1.68096867980694E-07  8.79779694946195E+00
 cg2d: Sum(rhs),rhsMax =   1.67995075628369E-07  8.80312339652564E+00
 cg2d: Sum(rhs),rhsMax =   1.67893297486899E-07  8.80844419596376E+00
 cg2d: Sum(rhs),rhsMax =   1.67792002514489E-07  8.81375727000352E+00
 cg2d: Sum(rhs),rhsMax =   1.67690991759173E-07  8.81906074076855E+00
 cg2d: Sum(rhs),rhsMax =   1.67590364696935E-07  8.82435302858595E+00
 cg2d: Sum(rhs),rhsMax =   1.67489801583542E-07  8.82963296688162E+00
 cg2d: Sum(rhs),rhsMax =   1.67389771377202E-07  8.83489991268453E+00
 cg2d: Sum(rhs),rhsMax =   1.67290018282529E-07  8.84015381998810E+00
 cg2d: Sum(rhs),rhsMax =   1.67191025468583E-07  8.84539524558423E+00
 cg2d: Sum(rhs),rhsMax =   1.67091911862371E-07  8.85062527386172E+00
 cg2d: Sum(rhs),rhsMax =   1.66993110894964E-07  8.85584539161906E+00
 cg2d: Sum(rhs),rhsMax =   1.66895297581959E-07  8.86105731971219E+00
 cg2d: Sum(rhs),rhsMax =   1.66797214262715E-07  8.86626284368505E+00
 cg2d: Sum(rhs),rhsMax =   1.66699088310907E-07  8.87146368108963E+00
 cg2d: Sum(rhs),rhsMax =   1.66601175521919E-07  8.87666140941337E+00
 cg2d: Sum(rhs),rhsMax =   1.66503703269427E-07  8.88185744320308E+00
 cg2d: Sum(rhs),rhsMax =   1.66406401547192E-07  8.88705304968201E+00
 EXTERNAL_FIELDS_LOAD, it=   3600030 : Reading new data, i0,i1=    1    2 (prev=   12    1 )
 DIC_FIELDS_LOAD, it=   3600030 : Reading new data, i0,i1=    1    2 (prev=   12    1 )
 cg2d: Sum(rhs),rhsMax =   1.66308751659017E-07  8.89224939629417E+00
 cg2d: Sum(rhs),rhsMax =   1.66211989949261E-07  8.89742905273518E+00
 cg2d: Sum(rhs),rhsMax =   1.66115810884548E-07  8.90258194312370E+00
 cg2d: Sum(rhs),rhsMax =   1.66020008407486E-07  8.90769862985287E+00
 cg2d: Sum(rhs),rhsMax =   1.65925222006535E-07  8.91277064894441E+00
 cg2d: Sum(rhs),rhsMax =   1.65832325649262E-07  8.91779073567431E+00
 cg2d: Sum(rhs),rhsMax =   1.65739969304468E-07  8.92275296238945E+00
 cg2d: Sum(rhs),rhsMax =   1.65648664562923E-07  8.92765282308104E+00
 cg2d: Sum(rhs),rhsMax =   1.65559029596807E-07  8.93248727153984E+00
 cg2d: Sum(rhs),rhsMax =   1.65470908086718E-07  8.93725470683360E+00
 cg2d: Sum(rhs),rhsMax =   1.65383411854236E-07  8.94195490169141E+00
 cg2d: Sum(rhs),rhsMax =   1.65297855403423E-07  8.94658889014494E+00
 cg2d: Sum(rhs),rhsMax =   1.65213478453552E-07  8.95115882656284E+00
 cg2d: Sum(rhs),rhsMax =   1.65130131790647E-07  8.95566783046152E+00
 cg2d: Sum(rhs),rhsMax =   1.65047609357316E-07  8.96011984139981E+00
 cg2d: Sum(rhs),rhsMax =   1.64966841964542E-07  8.96451949805779E+00
 cg2d: Sum(rhs),rhsMax =   1.64886614584248E-07  8.96887204401274E+00
 cg2d: Sum(rhs),rhsMax =   1.64807353542074E-07  8.97318325974703E+00
 cg2d: Sum(rhs),rhsMax =   1.64728760410071E-07  8.97745941334167E+00
 cg2d: Sum(rhs),rhsMax =   1.64650550971146E-07  8.98170721084718E+00
 cg2d: Sum(rhs),rhsMax =   1.64573251026923E-07  8.98593374417503E+00
 cg2d: Sum(rhs),rhsMax =   1.64495830290434E-07  8.99014648706113E+00
 cg2d: Sum(rhs),rhsMax =   1.64419148518391E-07  8.99435313191228E+00
 cg2d: Sum(rhs),rhsMax =   1.64342466746348E-07  8.99856143301709E+00
 cg2d: Sum(rhs),rhsMax =   1.64265266278107E-07  9.00277891979376E+00
 cg2d: Sum(rhs),rhsMax =   1.64188094231577E-07  9.00701226475977E+00
 cg2d: Sum(rhs),rhsMax =   1.64110602440815E-07  9.01126800872608E+00
 cg2d: Sum(rhs),rhsMax =   1.64032670113556E-07  9.01555262481054E+00
 cg2d: Sum(rhs),rhsMax =   1.63954233300956E-07  9.01987189615712E+00
 cg2d: Sum(rhs),rhsMax =   1.63875164105320E-07  9.02423093235336E+00
 cg2d: Sum(rhs),rhsMax =   1.63795320418103E-07  9.02863410711437E+00
 cg2d: Sum(rhs),rhsMax =   1.63714346967936E-07  9.03308492807320E+00
 cg2d: Sum(rhs),rhsMax =   1.63633295358068E-07  9.03758589550099E+00
 cg2d: Sum(rhs),rhsMax =   1.63551085563540E-07  9.04213843256992E+00
 cg2d: Sum(rhs),rhsMax =   1.63468094172003E-07  9.04674278808053E+00
 cg2d: Sum(rhs),rhsMax =   1.63383937490380E-07  9.05139800068177E+00
 cg2d: Sum(rhs),rhsMax =   1.63299503697090E-07  9.05610191103194E+00
 cg2d: Sum(rhs),rhsMax =   1.63213783821448E-07  9.06085121060704E+00
 cg2d: Sum(rhs),rhsMax =   1.63127957364395E-07  9.06564152308058E+00
 cg2d: Sum(rhs),rhsMax =   1.63041192990931E-07  9.07046751690403E+00
 cg2d: Sum(rhs),rhsMax =   1.62954130189519E-07  9.07532304700718E+00
 cg2d: Sum(rhs),rhsMax =   1.62866854225285E-07  9.08020131376247E+00
 cg2d: Sum(rhs),rhsMax =   1.62779372203659E-07  9.08509502964907E+00
 cg2d: Sum(rhs),rhsMax =   1.62691954130878E-07  9.08999659239780E+00
 cg2d: Sum(rhs),rhsMax =   1.62604585796089E-07  9.09489817218861E+00
 cg2d: Sum(rhs),rhsMax =   1.62517501678394E-07  9.09979218349167E+00
 cg2d: Sum(rhs),rhsMax =   1.62430644934375E-07  9.10467101498796E+00
 cg2d: Sum(rhs),rhsMax =   1.62344292675698E-07  9.10952746457549E+00
 cg2d: Sum(rhs),rhsMax =   1.62258693592321E-07  9.11435477997425E+00
 cg2d: Sum(rhs),rhsMax =   1.62174011109073E-07  9.11914675387257E+00
 cg2d: Sum(rhs),rhsMax =   1.62089747846039E-07  9.12389782853965E+00
 cg2d: Sum(rhs),rhsMax =   1.62006273285442E-07  9.12860319621454E+00
 cg2d: Sum(rhs),rhsMax =   1.61924113228906E-07  9.13325897230795E+00
 cg2d: Sum(rhs),rhsMax =   1.61842727663952E-07  9.13786227569362E+00
 cg2d: Sum(rhs),rhsMax =   1.61762493178230E-07  9.14241138202085E+00
 cg2d: Sum(rhs),rhsMax =   1.61683040289518E-07  9.14690582567222E+00
 cg2d: Sum(rhs),rhsMax =   1.61604830850592E-07  9.15134644986131E+00
 cg2d: Sum(rhs),rhsMax =   1.61527417219531E-07  9.15573538211935E+00
 cg2d: Sum(rhs),rhsMax =   1.61451261249113E-07  9.16007592950651E+00
 cg2d: Sum(rhs),rhsMax =   1.61375858453994E-07  9.16437240256295E+00
 EXTERNAL_FIELDS_LOAD, it=   3600090 : Reading new data, i0,i1=    2    3 (prev=    1    2 )
 DIC_FIELDS_LOAD, it=   3600090 : Reading new data, i0,i1=    2    3 (prev=    1    2 )
 cg2d: Sum(rhs),rhsMax =   1.61301031198491E-07  9.16862988474514E+00
 cg2d: Sum(rhs),rhsMax =   1.61226488160082E-07  9.17287253571495E+00
 cg2d: Sum(rhs),rhsMax =   1.61152193811631E-07  9.17711746016568E+00
 cg2d: Sum(rhs),rhsMax =   1.61077544191812E-07  9.18138108877058E+00
 cg2d: Sum(rhs),rhsMax =   1.61002326137805E-07  9.18567861304476E+00
 cg2d: Sum(rhs),rhsMax =   1.60926205694523E-07  9.19002353014883E+00
 cg2d: Sum(rhs),rhsMax =   1.60849204178248E-07  9.19442728641192E+00
 cg2d: Sum(rhs),rhsMax =   1.60771165269580E-07  9.19889902438565E+00
 cg2d: Sum(rhs),rhsMax =   1.60691676853730E-07  9.20344543538162E+00
 cg2d: Sum(rhs),rhsMax =   1.60610625243862E-07  9.20807071616803E+00
 cg2d: Sum(rhs),rhsMax =   1.60529111781216E-07  9.21277660183589E+00
 cg2d: Sum(rhs),rhsMax =   1.60445615904337E-07  9.21756247694247E+00
 cg2d: Sum(rhs),rhsMax =   1.60361018686217E-07  9.22242554775714E+00
 cg2d: Sum(rhs),rhsMax =   1.60275249072583E-07  9.22736105179622E+00
 cg2d: Sum(rhs),rhsMax =   1.60188832865060E-07  9.23236249675336E+00
 cg2d: Sum(rhs),rhsMax =   1.60101009782920E-07  9.23742190581730E+00
 cg2d: Sum(rhs),rhsMax =   1.60012376682062E-07  9.24253005999046E+00
 cg2d: Sum(rhs),rhsMax =   1.59923374098980E-07  9.24767675774736E+00
 cg2d: Sum(rhs),rhsMax =   1.59833348334359E-07  9.25285099530738E+00
 cg2d: Sum(rhs),rhsMax =   1.59743947847346E-07  9.25804118480452E+00
 cg2d: Sum(rhs),rhsMax =   1.59654156561828E-07  9.26323537521839E+00
 cg2d: Sum(rhs),rhsMax =   1.59564649493404E-07  9.26842146305946E+00
 cg2d: Sum(rhs),rhsMax =   1.59475810335152E-07  9.27358734254206E+00
 cg2d: Sum(rhs),rhsMax =   1.59387511189379E-07  9.27872091717081E+00
 cg2d: Sum(rhs),rhsMax =   1.59299617052966E-07  9.28381136814303E+00
 cg2d: Sum(rhs),rhsMax =   1.59212980577195E-07  9.28884862895416E+00
 cg2d: Sum(rhs),rhsMax =   1.59127175436424E-07  9.29382345652557E+00
 cg2d: Sum(rhs),rhsMax =   1.59043672454118E-07  9.29872780684878E+00
 cg2d: Sum(rhs),rhsMax =   1.58960915541684E-07  9.30355510475018E+00
 cg2d: Sum(rhs),rhsMax =   1.58879650768995E-07  9.30830036704988E+00
 cg2d: Sum(rhs),rhsMax =  -1.11109819300736E-06  9.31296036976950E+00
 cg2d: Sum(rhs),rhsMax =  -1.11055334883758E-06  9.31753293520867E+00
 cg2d: Sum(rhs),rhsMax =  -1.11001891411888E-06  9.32201784255204E+00
 cg2d: Sum(rhs),rhsMax =  -1.10949526543891E-06  9.32641604444482E+00
 cg2d: Sum(rhs),rhsMax =  -1.10898259464420E-06  9.33072971682176E+00
 cg2d: Sum(rhs),rhsMax =  -1.10847996381835E-06  9.33496214145759E+00
 cg2d: Sum(rhs),rhsMax =  -1.10798700347914E-06  9.33911759091053E+00
 cg2d: Sum(rhs),rhsMax =  -1.10750241333335E-06  9.34320120260285E+00
 cg2d: Sum(rhs),rhsMax =  -1.10702649180894E-06  9.34721882659240E+00
 cg2d: Sum(rhs),rhsMax =  -1.10655813756466E-06  9.35117684970640E+00
 cg2d: Sum(rhs),rhsMax =  -1.11109819300736E-06  9.31296036976950E+00
 cg2d: Sum(rhs),rhsMax =  -1.11055334883758E-06  9.31753293520867E+00
 cg2d: Sum(rhs),rhsMax =  -1.11001891411888E-06  9.32201784255204E+00
 cg2d: Sum(rhs),rhsMax =  -1.10949526543891E-06  9.32641604444482E+00
 cg2d: Sum(rhs),rhsMax =  -1.10898259464420E-06  9.33072971682176E+00
 cg2d: Sum(rhs),rhsMax =  -1.10847996381835E-06  9.33496214145759E+00
 cg2d: Sum(rhs),rhsMax =  -1.10798700347914E-06  9.33911759091053E+00
 cg2d: Sum(rhs),rhsMax =  -1.10750241333335E-06  9.34320120260285E+00
 cg2d: Sum(rhs),rhsMax =  -1.10702649180894E-06  9.34721882659240E+00
 cg2d: Sum(rhs),rhsMax =  -1.43946282804563E-06  9.35117659330344E+00
 cg2d: Sum(rhs),rhsMax =  -5.04485342389671E-12  6.02806812735676E-02
 cg2d: Sum(rhs),rhsMax =  -1.11109819300736E-06  9.31296036976950E+00
 cg2d: Sum(rhs),rhsMax =  -1.11055334883758E-06  9.31753293520867E+00
 cg2d: Sum(rhs),rhsMax =  -1.11001891411888E-06  9.32201784255204E+00
 cg2d: Sum(rhs),rhsMax =  -1.10949526543891E-06  9.32641604444482E+00
 cg2d: Sum(rhs),rhsMax =  -1.10898259464420E-06  9.33072971682176E+00
 cg2d: Sum(rhs),rhsMax =  -1.10847996381835E-06  9.33496214145759E+00
 cg2d: Sum(rhs),rhsMax =  -1.10798700347914E-06  9.33911759091053E+00
 cg2d: Sum(rhs),rhsMax =  -1.10750241333335E-06  9.34320120260285E+00
 cg2d: Sum(rhs),rhsMax =  -5.70554682610691E-07  9.34721906101732E+00
 cg2d: Sum(rhs),rhsMax =  -5.10747000248557E-12  6.00920226804361E-02
 cg2d: Sum(rhs),rhsMax =  -1.11109819300736E-06  9.31296036976950E+00
 cg2d: Sum(rhs),rhsMax =  -1.11055334883758E-06  9.31753293520867E+00
 cg2d: Sum(rhs),rhsMax =  -1.11001891411888E-06  9.32201784255204E+00
 cg2d: Sum(rhs),rhsMax =  -1.10949526543891E-06  9.32641604444482E+00
 cg2d: Sum(rhs),rhsMax =  -1.10898259464420E-06  9.33072971682176E+00
 cg2d: Sum(rhs),rhsMax =  -1.10847996381835E-06  9.33496214145759E+00
 cg2d: Sum(rhs),rhsMax =  -1.10798700347914E-06  9.33911759091053E+00
 cg2d: Sum(rhs),rhsMax =  -1.03763376557708E-07  9.34320156458618E+00
 cg2d: Sum(rhs),rhsMax =  -5.26156895830354E-12  5.96435352926166E-02
 cg2d: Sum(rhs),rhsMax =  -1.11109819300736E-06  9.31296036976950E+00
 cg2d: Sum(rhs),rhsMax =  -1.11055334883758E-06  9.31753293520867E+00
 cg2d: Sum(rhs),rhsMax =  -1.11001891411888E-06  9.32201784255204E+00
 cg2d: Sum(rhs),rhsMax =  -1.10949526543891E-06  9.32641604444482E+00
 cg2d: Sum(rhs),rhsMax =  -1.10898259464420E-06  9.33072971682176E+00
 cg2d: Sum(rhs),rhsMax =  -1.10847996381835E-06  9.33496214145759E+00
 cg2d: Sum(rhs),rhsMax =  -8.17912123807218E-07  9.33911732068567E+00
 cg2d: Sum(rhs),rhsMax =  -5.40589795150481E-12  5.92231385366754E-02
 cg2d: Sum(rhs),rhsMax =  -1.11109819300736E-06  9.31296036976950E+00
 cg2d: Sum(rhs),rhsMax =  -1.11055334883758E-06  9.31753293520867E+00
 cg2d: Sum(rhs),rhsMax =  -1.11001891411888E-06  9.32201784255204E+00
 cg2d: Sum(rhs),rhsMax =  -1.10949526543891E-06  9.32641604444482E+00
 cg2d: Sum(rhs),rhsMax =  -1.10898259464420E-06  9.33072971682176E+00
 cg2d: Sum(rhs),rhsMax =  -4.21670442563027E-07  9.33496247077865E+00
 cg2d: Sum(rhs),rhsMax =  -5.52669021658403E-12  5.86371577986479E-02
 cg2d: Sum(rhs),rhsMax =  -1.11109819300736E-06  9.31296036976950E+00
 cg2d: Sum(rhs),rhsMax =  -1.11055334883758E-06  9.31753293520867E+00
 cg2d: Sum(rhs),rhsMax =  -1.11001891411888E-06  9.32201784255204E+00
 cg2d: Sum(rhs),rhsMax =  -1.10949526543891E-06  9.32641604444482E+00
 cg2d: Sum(rhs),rhsMax =  -1.89984314857838E-06  9.33072994247447E+00
 cg2d: Sum(rhs),rhsMax =  -5.66036106874890E-12  5.76565053161956E-02
 cg2d: Sum(rhs),rhsMax =  -1.11109819300736E-06  9.31296036976950E+00
 cg2d: Sum(rhs),rhsMax =  -1.11055334883758E-06  9.31753293520867E+00
 cg2d: Sum(rhs),rhsMax =  -1.11001891411888E-06  9.32201784255204E+00
 cg2d: Sum(rhs),rhsMax =  -5.12738530744627E-07  9.32641637645550E+00
 cg2d: Sum(rhs),rhsMax =  -5.94857496594159E-12  5.62679143065287E-02
 cg2d: Sum(rhs),rhsMax =  -1.11109819300736E-06  9.31296036976950E+00
 cg2d: Sum(rhs),rhsMax =  -1.11055334883758E-06  9.31753293520867E+00
 cg2d: Sum(rhs),rhsMax =  -2.06846423367324E-06  9.32201754048782E+00
 cg2d: Sum(rhs),rhsMax =  -6.11333206279596E-12  5.58341525337710E-02
 cg2d: Sum(rhs),rhsMax =  -1.11109819300736E-06  9.31296036976950E+00
 cg2d: Sum(rhs),rhsMax =  -1.36087899704762E-06  9.31753292060060E+00
 cg2d: Sum(rhs),rhsMax =  -6.09023942388376E-12  5.60969711489315E-02
 cg2d: Sum(rhs),rhsMax =  -1.11109814326937E-06  9.31296036957199E+00
 cg2d: Sum(rhs),rhsMax =  -6.17372819533557E-12  5.61198279184025E-02
 EXTERNAL_FIELDS_LOAD, it=   3600000 : Reading new data, i0,i1=   12    1 (prev=   12    3 )
 DIC_FIELDS_LOAD, it=   3600000 : Reading new data, i0,i1=   12    1 (prev=   12    0 )
 cg2d: Sum(rhs),rhsMax =   1.69318610687696E-07  8.73439699737069E+00
 cg2d: Sum(rhs),rhsMax =   1.69217777568065E-07  8.73957985685053E+00
 cg2d: Sum(rhs),rhsMax =   1.69116930237578E-07  8.74478996407667E+00
 cg2d: Sum(rhs),rhsMax =   1.69015713424869E-07  8.75002525197054E+00
 cg2d: Sum(rhs),rhsMax =   1.68913977915963E-07  8.75528319149979E+00
 cg2d: Sum(rhs),rhsMax =   1.68812391621032E-07  8.76056091159563E+00
 cg2d: Sum(rhs),rhsMax =   1.68710130310501E-07  8.76585531016545E+00
 cg2d: Sum(rhs),rhsMax =   1.68607783734842E-07  8.77116317961867E+00
 cg2d: Sum(rhs),rhsMax =   1.68505465580893E-07  8.77648131488675E+00
 cg2d: Sum(rhs),rhsMax =   1.68403296640918E-07  8.78180660701903E+00
 cg2d: Sum(rhs),rhsMax =   1.68301063752097E-07  8.78713610702002E+00
 cg2d: Sum(rhs),rhsMax =   1.68199015604387E-07  8.79246706727320E+00
 cg2d: Sum(rhs),rhsMax =   1.68096867980694E-07  8.79779694946195E+00
 cg2d: Sum(rhs),rhsMax =   1.67995075628369E-07  8.80312339652564E+00
 cg2d: Sum(rhs),rhsMax =   1.67893297486899E-07  8.80844419596376E+00
 cg2d: Sum(rhs),rhsMax =   1.67792002514489E-07  8.81375727000352E+00
 cg2d: Sum(rhs),rhsMax =   1.67690991759173E-07  8.81906074076855E+00
 cg2d: Sum(rhs),rhsMax =   1.67590364696935E-07  8.82435302858595E+00
 cg2d: Sum(rhs),rhsMax =   1.67489801583542E-07  8.82963296688162E+00
 cg2d: Sum(rhs),rhsMax =   1.67389771377202E-07  8.83489991268453E+00
 cg2d: Sum(rhs),rhsMax =   1.67290018282529E-07  8.84015381998810E+00
 cg2d: Sum(rhs),rhsMax =   1.67191025468583E-07  8.84539524558423E+00
 cg2d: Sum(rhs),rhsMax =   1.67091911862371E-07  8.85062527386172E+00
 cg2d: Sum(rhs),rhsMax =   1.66993110894964E-07  8.85584539161906E+00
 cg2d: Sum(rhs),rhsMax =   1.66895297581959E-07  8.86105731971219E+00
 cg2d: Sum(rhs),rhsMax =   1.66797214262715E-07  8.86626284368505E+00
 cg2d: Sum(rhs),rhsMax =   1.66699088310907E-07  8.87146368108963E+00
 cg2d: Sum(rhs),rhsMax =   1.66601175521919E-07  8.87666140941337E+00
 cg2d: Sum(rhs),rhsMax =   1.66503703269427E-07  8.88185744320308E+00
 cg2d: Sum(rhs),rhsMax =   1.66406401547192E-07  8.88705304968201E+00
 EXTERNAL_FIELDS_LOAD, it=   3600030 : Reading new data, i0,i1=    1    2 (prev=   12    1 )
 DIC_FIELDS_LOAD, it=   3600030 : Reading new data, i0,i1=    1    2 (prev=   12    1 )
 cg2d: Sum(rhs),rhsMax =   1.66308751659017E-07  8.89224939629417E+00
 cg2d: Sum(rhs),rhsMax =   1.66211989949261E-07  8.89742905273518E+00
 cg2d: Sum(rhs),rhsMax =   1.66115810884548E-07  8.90258194312370E+00
 cg2d: Sum(rhs),rhsMax =   1.66020008407486E-07  8.90769862985287E+00
 cg2d: Sum(rhs),rhsMax =   1.65925222006535E-07  8.91277064894441E+00
 cg2d: Sum(rhs),rhsMax =   1.65832325649262E-07  8.91779073567431E+00
 cg2d: Sum(rhs),rhsMax =   1.65739969304468E-07  8.92275296238945E+00
 cg2d: Sum(rhs),rhsMax =   1.65648664562923E-07  8.92765282308104E+00
 cg2d: Sum(rhs),rhsMax =   1.65559029596807E-07  8.93248727153984E+00
 cg2d: Sum(rhs),rhsMax =   1.65470908086718E-07  8.93725470683360E+00
 cg2d: Sum(rhs),rhsMax =   1.65383411854236E-07  8.94195490169141E+00
 cg2d: Sum(rhs),rhsMax =   1.65297855403423E-07  8.94658889014494E+00
 cg2d: Sum(rhs),rhsMax =   1.65213478453552E-07  8.95115882656284E+00
 cg2d: Sum(rhs),rhsMax =   1.65130131790647E-07  8.95566783046152E+00
 cg2d: Sum(rhs),rhsMax =   1.65047609357316E-07  8.96011984139981E+00
 cg2d: Sum(rhs),rhsMax =   1.64966841964542E-07  8.96451949805779E+00
 cg2d: Sum(rhs),rhsMax =   1.64886614584248E-07  8.96887204401274E+00
 cg2d: Sum(rhs),rhsMax =   1.64807353542074E-07  8.97318325974703E+00
 cg2d: Sum(rhs),rhsMax =   1.64728760410071E-07  8.97745941334167E+00
 cg2d: Sum(rhs),rhsMax =   1.64650550971146E-07  8.98170721084718E+00
 cg2d: Sum(rhs),rhsMax =   1.64573251026923E-07  8.98593374417503E+00
 cg2d: Sum(rhs),rhsMax =   1.64495830290434E-07  8.99014648706113E+00
 cg2d: Sum(rhs),rhsMax =   1.64419148518391E-07  8.99435313191228E+00
 cg2d: Sum(rhs),rhsMax =   1.64342466746348E-07  8.99856143301709E+00
 cg2d: Sum(rhs),rhsMax =   1.64265266278107E-07  9.00277891979376E+00
 cg2d: Sum(rhs),rhsMax =   1.64188094231577E-07  9.00701226475977E+00
 cg2d: Sum(rhs),rhsMax =   1.64110602440815E-07  9.01126800872608E+00
 cg2d: Sum(rhs),rhsMax =   1.64032670113556E-07  9.01555262481054E+00
 cg2d: Sum(rhs),rhsMax =   1.63954233300956E-07  9.01987189615712E+00
 cg2d: Sum(rhs),rhsMax =   1.63875164105320E-07  9.02423093235336E+00
 cg2d: Sum(rhs),rhsMax =   1.63795320418103E-07  9.02863410711437E+00
 cg2d: Sum(rhs),rhsMax =   1.63714346967936E-07  9.03308492807320E+00
 cg2d: Sum(rhs),rhsMax =   1.63633295358068E-07  9.03758589550099E+00
 cg2d: Sum(rhs),rhsMax =   1.63551085563540E-07  9.04213843256992E+00
 cg2d: Sum(rhs),rhsMax =   1.63468094172003E-07  9.04674278808053E+00
 cg2d: Sum(rhs),rhsMax =   1.63383937490380E-07  9.05139800068177E+00
 cg2d: Sum(rhs),rhsMax =   1.63299503697090E-07  9.05610191103194E+00
 cg2d: Sum(rhs),rhsMax =   1.63213783821448E-07  9.06085121060704E+00
 cg2d: Sum(rhs),rhsMax =   1.63127957364395E-07  9.06564152308058E+00
 cg2d: Sum(rhs),rhsMax =   1.63041192990931E-07  9.07046751690403E+00
 cg2d: Sum(rhs),rhsMax =   1.62954130189519E-07  9.07532304700718E+00
 cg2d: Sum(rhs),rhsMax =   1.62866854225285E-07  9.08020131376247E+00
 cg2d: Sum(rhs),rhsMax =   1.62779372203659E-07  9.08509502964907E+00
 cg2d: Sum(rhs),rhsMax =   1.62691954130878E-07  9.08999659239780E+00
 cg2d: Sum(rhs),rhsMax =   1.62604585796089E-07  9.09489817218861E+00
 cg2d: Sum(rhs),rhsMax =   1.62517501678394E-07  9.09979218349167E+00
 cg2d: Sum(rhs),rhsMax =   1.62430644934375E-07  9.10467101498796E+00
 cg2d: Sum(rhs),rhsMax =   1.62344292675698E-07  9.10952746457549E+00
 cg2d: Sum(rhs),rhsMax =   1.62258693592321E-07  9.11435477997425E+00
 cg2d: Sum(rhs),rhsMax =   1.62174011109073E-07  9.11914675387257E+00
 cg2d: Sum(rhs),rhsMax =   1.62089747846039E-07  9.12389782853965E+00
 cg2d: Sum(rhs),rhsMax =   1.62006273285442E-07  9.12860319621454E+00
 cg2d: Sum(rhs),rhsMax =   1.61924113228906E-07  9.13325897230795E+00
 cg2d: Sum(rhs),rhsMax =   1.61842727663952E-07  9.13786227569362E+00
 cg2d: Sum(rhs),rhsMax =   1.61762493178230E-07  9.14241138202085E+00
 cg2d: Sum(rhs),rhsMax =   1.61683040289518E-07  9.14690582567222E+00
 cg2d: Sum(rhs),rhsMax =   1.61604830850592E-07  9.15134644986131E+00
 cg2d: Sum(rhs),rhsMax =   1.61527417219531E-07  9.15573538211935E+00
 cg2d: Sum(rhs),rhsMax =   1.61451261249113E-07  9.16007592950651E+00
 cg2d: Sum(rhs),rhsMax =   1.61375858453994E-07  9.16437240256295E+00
 EXTERNAL_FIELDS_LOAD, it=   3600090 : Reading new data, i0,i1=    2    3 (prev=    1    2 )
 DIC_FIELDS_LOAD, it=   3600090 : Reading new data, i0,i1=    2    3 (prev=    1    2 )
 cg2d: Sum(rhs),rhsMax =   1.61301031198491E-07  9.16862988474514E+00
 cg2d: Sum(rhs),rhsMax =   1.61226488160082E-07  9.17287253571495E+00
 cg2d: Sum(rhs),rhsMax =   1.61152193811631E-07  9.17711746016568E+00
 cg2d: Sum(rhs),rhsMax =   1.61077544191812E-07  9.18138108877058E+00
 cg2d: Sum(rhs),rhsMax =   1.61002326137805E-07  9.18567861304476E+00
 cg2d: Sum(rhs),rhsMax =   1.60926205694523E-07  9.19002353014883E+00
 cg2d: Sum(rhs),rhsMax =   1.60849204178248E-07  9.19442728641192E+00
 cg2d: Sum(rhs),rhsMax =   1.60771165269580E-07  9.19889902438565E+00
 cg2d: Sum(rhs),rhsMax =   1.60691676853730E-07  9.20344543538162E+00
 cg2d: Sum(rhs),rhsMax =   1.60610625243862E-07  9.20807071616803E+00
 cg2d: Sum(rhs),rhsMax =   1.60529111781216E-07  9.21277660183589E+00
 cg2d: Sum(rhs),rhsMax =   1.60445615904337E-07  9.21756247694247E+00
 cg2d: Sum(rhs),rhsMax =   1.60361018686217E-07  9.22242554775714E+00
 cg2d: Sum(rhs),rhsMax =   1.60275249072583E-07  9.22736105179622E+00
 cg2d: Sum(rhs),rhsMax =   1.60188832865060E-07  9.23236249675336E+00
 cg2d: Sum(rhs),rhsMax =   1.60101009782920E-07  9.23742190581730E+00
 cg2d: Sum(rhs),rhsMax =   1.60012376682062E-07  9.24253005999046E+00
 cg2d: Sum(rhs),rhsMax =   1.59923374098980E-07  9.24767675774736E+00
 cg2d: Sum(rhs),rhsMax =   1.59833348334359E-07  9.25285099530738E+00
 cg2d: Sum(rhs),rhsMax =   1.59743947847346E-07  9.25804118480452E+00
 cg2d: Sum(rhs),rhsMax =  -4.67147209803898E-07  9.26323528205124E+00
 cg2d: Sum(rhs),rhsMax =  -4.66885815342266E-07  9.26842138353026E+00
 cg2d: Sum(rhs),rhsMax =  -4.66625770911833E-07  9.27358728685613E+00
 cg2d: Sum(rhs),rhsMax =  -4.66367836793324E-07  9.27872089555924E+00
 cg2d: Sum(rhs),rhsMax =  -4.66112538788366E-07  9.28381139191536E+00
 cg2d: Sum(rhs),rhsMax =  -4.65859862686102E-07  9.28884871037589E+00
 cg2d: Sum(rhs),rhsMax =  -4.65610860089782E-07  9.29382360741095E+00
 cg2d: Sum(rhs),rhsMax =  -4.65365097568338E-07  9.29872803698731E+00
 cg2d: Sum(rhs),rhsMax =  -4.65123932258393E-07  9.30355542085835E+00
 cg2d: Sum(rhs),rhsMax =  -4.64886753093197E-07  9.30830077214602E+00
 cg2d: Sum(rhs),rhsMax =  -4.67147209803898E-07  9.26323528205124E+00
 cg2d: Sum(rhs),rhsMax =  -4.66885815342266E-07  9.26842138353026E+00
 cg2d: Sum(rhs),rhsMax =  -4.66625770911833E-07  9.27358728685613E+00
 cg2d: Sum(rhs),rhsMax =  -4.66367836793324E-07  9.27872089555924E+00
 cg2d: Sum(rhs),rhsMax =  -4.66112538788366E-07  9.28381139191536E+00
 cg2d: Sum(rhs),rhsMax =  -4.65859862686102E-07  9.28884871037589E+00
 cg2d: Sum(rhs),rhsMax =  -4.65610860089782E-07  9.29382360741095E+00
 cg2d: Sum(rhs),rhsMax =  -4.65365097568338E-07  9.29872803698731E+00
 cg2d: Sum(rhs),rhsMax =  -4.65123932258393E-07  9.30355542085835E+00
 cg2d: Sum(rhs),rhsMax =  -1.85388227436079E-06  9.30830079816327E+00
 cg2d: Sum(rhs),rhsMax =  -6.31894536695654E-12  5.60124706868087E-02
 cg2d: Sum(rhs),rhsMax =  -4.67147209803898E-07  9.26323528205124E+00
 cg2d: Sum(rhs),rhsMax =  -4.66885815342266E-07  9.26842138353026E+00
 cg2d: Sum(rhs),rhsMax =  -4.66625770911833E-07  9.27358728685613E+00
 cg2d: Sum(rhs),rhsMax =  -4.66367836793324E-07  9.27872089555924E+00
 cg2d: Sum(rhs),rhsMax =  -4.66112538788366E-07  9.28381139191536E+00
 cg2d: Sum(rhs),rhsMax =  -4.65859862686102E-07  9.28884871037589E+00
 cg2d: Sum(rhs),rhsMax =  -4.65610860089782E-07  9.29382360741095E+00
 cg2d: Sum(rhs),rhsMax =  -4.65365097568338E-07  9.29872803698731E+00
 cg2d: Sum(rhs),rhsMax =   4.49721270001646E-07  9.30355560793027E+00
 cg2d: Sum(rhs),rhsMax =  -6.55298038054752E-12  5.42131567053815E-02
 cg2d: Sum(rhs),rhsMax =  -4.67147209803898E-07  9.26323528205124E+00
 cg2d: Sum(rhs),rhsMax =  -4.66885815342266E-07  9.26842138353026E+00
 cg2d: Sum(rhs),rhsMax =  -4.66625770911833E-07  9.27358728685613E+00
 cg2d: Sum(rhs),rhsMax =  -4.66367836793324E-07  9.27872089555924E+00
 cg2d: Sum(rhs),rhsMax =  -4.66112538788366E-07  9.28381139191536E+00
 cg2d: Sum(rhs),rhsMax =  -4.65859862686102E-07  9.28884871037589E+00
 cg2d: Sum(rhs),rhsMax =  -4.65610860089782E-07  9.29382360741095E+00
 cg2d: Sum(rhs),rhsMax =  -5.02558648918239E-07  9.29872800677350E+00
 cg2d: Sum(rhs),rhsMax =  -6.12354611462251E-12  5.95897767379541E-02
 cg2d: Sum(rhs),rhsMax =  -4.67147209803898E-07  9.26323528205124E+00
 cg2d: Sum(rhs),rhsMax =  -4.66885815342266E-07  9.26842138353026E+00
 cg2d: Sum(rhs),rhsMax =  -4.66625770911833E-07  9.27358728685613E+00
 cg2d: Sum(rhs),rhsMax =  -4.66367836793324E-07  9.27872089555924E+00
 cg2d: Sum(rhs),rhsMax =  -4.66112538788366E-07  9.28381139191536E+00
 cg2d: Sum(rhs),rhsMax =  -4.65859862686102E-07  9.28884871037589E+00
 cg2d: Sum(rhs),rhsMax =  -7.08266895799170E-07  9.29382350621930E+00
(PID.TID 0000.0001) // =======================================================
(PID.TID 0000.0001) // Begin AD_MONITOR dynamic field statistics
(PID.TID 0000.0001) // =======================================================
(PID.TID 0000.0001) %MON ad_time_tsnumber             =               3600117
(PID.TID 0000.0001) %MON ad_time_secondsf             =   1.5552505440000E+11
(PID.TID 0000.0001) %MON ad_dynstat_adeta_max         =   1.3994778535254E+03
(PID.TID 0000.0001) %MON ad_dynstat_adeta_min         =  -7.1864212370096E+03
(PID.TID 0000.0001) %MON ad_dynstat_adeta_mean        =  -8.1460743077744E+01
(PID.TID 0000.0001) %MON ad_dynstat_adeta_sd          =   1.3058071050518E+03
(PID.TID 0000.0001) %MON ad_dynstat_adeta_del2        =   1.1480257652315E+01
(PID.TID 0000.0001) %MON ad_dynstat_aduvel_max        =   3.6643767449127E+04
(PID.TID 0000.0001) %MON ad_dynstat_aduvel_min        =  -1.9846775721668E+04
(PID.TID 0000.0001) %MON ad_dynstat_aduvel_mean       =   1.3655264778891E+02
(PID.TID 0000.0001) %MON ad_dynstat_aduvel_sd         =   1.4796344983740E+03
(PID.TID 0000.0001) %MON ad_dynstat_aduvel_del2       =   7.3611052051443E+00
(PID.TID 0000.0001) %MON ad_dynstat_advvel_max        =   2.2852905926654E+04
(PID.TID 0000.0001) %MON ad_dynstat_advvel_min        =  -2.8391642992310E+04
(PID.TID 0000.0001) %MON ad_dynstat_advvel_mean       =  -8.0624771002602E+00
(PID.TID 0000.0001) %MON ad_dynstat_advvel_sd         =   1.7554003540350E+03
(PID.TID 0000.0001) %MON ad_dynstat_advvel_del2       =   7.5109058944149E+00
(PID.TID 0000.0001) %MON ad_dynstat_adwvel_max        =   1.0342283448450E+04
(PID.TID 0000.0001) %MON ad_dynstat_adwvel_min        =  -1.2494865340960E+05
(PID.TID 0000.0001) %MON ad_dynstat_adwvel_mean       =  -4.8680898630559E+00
(PID.TID 0000.0001) %MON ad_dynstat_adwvel_sd         =   4.1844557260896E+02
(PID.TID 0000.0001) %MON ad_dynstat_adwvel_del2       =   1.1494327695423E+01
(PID.TID 0000.0001) %MON ad_dynstat_adtheta_max       =   5.5095389789985E+03
(PID.TID 0000.0001) %MON ad_dynstat_adtheta_min       =  -9.3277536470815E+03
(PID.TID 0000.0001) %MON ad_dynstat_adtheta_mean      =   2.3292571442076E+00
(PID.TID 0000.0001) %MON ad_dynstat_adtheta_sd        =   4.8222108453032E+02
(PID.TID 0000.0001) %MON ad_dynstat_adtheta_del2      =   1.4485843075842E+00
(PID.TID 0000.0001) %MON ad_dynstat_adsalt_max        =   4.1863490384671E+04
(PID.TID 0000.0001) %MON ad_dynstat_adsalt_min        =  -3.2196084529702E+04
(PID.TID 0000.0001) %MON ad_dynstat_adsalt_mean       =  -1.2292622232509E+01
(PID.TID 0000.0001) %MON ad_dynstat_adsalt_sd         =   2.5170403322997E+03
(PID.TID 0000.0001) %MON ad_dynstat_adsalt_del2       =   7.3245452008975E+00
(PID.TID 0000.0001) %MON ad_dynstat_adsst_max         =   1.3834299022367E+01
(PID.TID 0000.0001) %MON ad_dynstat_adsst_min         =  -4.5731999941956E+00
(PID.TID 0000.0001) %MON ad_dynstat_adsst_mean        =  -2.7931260011871E-02
(PID.TID 0000.0001) %MON ad_dynstat_adsst_sd          =   2.3112915445476E+00
(PID.TID 0000.0001) %MON ad_dynstat_adsst_del2        =   2.2539497627715E-02
(PID.TID 0000.0001) %MON ad_dynstat_adsss_max         =   1.8362846923585E+01
(PID.TID 0000.0001) %MON ad_dynstat_adsss_min         =  -6.1723098605671E+01
(PID.TID 0000.0001) %MON ad_dynstat_adsss_mean        =   4.7261724708644E-01
(PID.TID 0000.0001) %MON ad_dynstat_adsss_sd          =   7.5033531609546E+00
(PID.TID 0000.0001) %MON ad_dynstat_adsss_del2        =   7.9559176534694E-02
(PID.TID 0000.0001) %MON ad_forcing_adqnet_max        =   0.0000000000000E+00
(PID.TID 0000.0001) %MON ad_forcing_adqnet_min        =   0.0000000000000E+00
(PID.TID 0000.0001) %MON ad_forcing_adqnet_mean       =   0.0000000000000E+00
(PID.TID 0000.0001) %MON ad_forcing_adqnet_sd         =   0.0000000000000E+00
(PID.TID 0000.0001) %MON ad_forcing_adqnet_del2       =   0.0000000000000E+00
(PID.TID 0000.0001) %MON ad_forcing_adqsw_max         =   2.1819414162176E-01
(PID.TID 0000.0001) %MON ad_forcing_adqsw_min         =  -7.6093685074665E-01
(PID.TID 0000.0001) %MON ad_forcing_adqsw_mean        =  -5.1791362342139E-03
(PID.TID 0000.0001) %MON ad_forcing_adqsw_sd          =   7.4602674425950E-02
(PID.TID 0000.0001) %MON ad_forcing_adqsw_del2        =   8.1246509363856E-04
(PID.TID 0000.0001) %MON ad_forcing_adempmr_max       =   0.0000000000000E+00
(PID.TID 0000.0001) %MON ad_forcing_adempmr_min       =   0.0000000000000E+00
(PID.TID 0000.0001) %MON ad_forcing_adempmr_mean      =   0.0000000000000E+00
(PID.TID 0000.0001) %MON ad_forcing_adempmr_sd        =   0.0000000000000E+00
(PID.TID 0000.0001) %MON ad_forcing_adempmr_del2      =   0.0000000000000E+00
(PID.TID 0000.0001) %MON ad_forcing_adfu_max          =   0.0000000000000E+00
(PID.TID 0000.0001) %MON ad_forcing_adfu_min          =   0.0000000000000E+00
(PID.TID 0000.0001) %MON ad_forcing_adfu_mean         =   0.0000000000000E+00
(PID.TID 0000.0001) %MON ad_forcing_adfu_sd           =   0.0000000000000E+00
(PID.TID 0000.0001) %MON ad_forcing_adfu_del2         =   0.0000000000000E+00
(PID.TID 0000.0001) %MON ad_forcing_adfv_max          =   0.0000000000000E+00
(PID.TID 0000.0001) %MON ad_forcing_adfv_min          =   0.0000000000000E+00
(PID.TID 0000.0001) %MON ad_forcing_adfv_mean         =   0.0000000000000E+00
(PID.TID 0000.0001) %MON ad_forcing_adfv_sd           =   0.0000000000000E+00
(PID.TID 0000.0001) %MON ad_forcing_adfv_del2         =   0.0000000000000E+00
(PID.TID 0000.0001) // =======================================================
(PID.TID 0000.0001) // End AD_MONITOR dynamic field statistics
(PID.TID 0000.0001) // =======================================================
(PID.TID 0000.0001) // =======================================================
(PID.TID 0000.0001) // Begin AD_MONITOR ptracer field statistics
(PID.TID 0000.0001) // =======================================================
(PID.TID 0000.0001) %MON ad_trcstat_adptracer01_max   =   0.0000000000000E+00
(PID.TID 0000.0001) %MON ad_trcstat_adptracer01_min   =   0.0000000000000E+00
(PID.TID 0000.0001) %MON ad_trcstat_adptracer01_mean  =   0.0000000000000E+00
(PID.TID 0000.0001) %MON ad_trcstat_adptracer01_sd    =   0.0000000000000E+00
(PID.TID 0000.0001) %MON ad_trcstat_adptracer01_del2  =   0.0000000000000E+00
(PID.TID 0000.0001) %MON ad_trcstat_adptracer02_max   =   0.0000000000000E+00
(PID.TID 0000.0001) %MON ad_trcstat_adptracer02_min   =   0.0000000000000E+00
(PID.TID 0000.0001) %MON ad_trcstat_adptracer02_mean  =   0.0000000000000E+00
(PID.TID 0000.0001) %MON ad_trcstat_adptracer02_sd    =   0.0000000000000E+00
(PID.TID 0000.0001) %MON ad_trcstat_adptracer02_del2  =   0.0000000000000E+00
(PID.TID 0000.0001) %MON ad_trcstat_adptracer03_max   =   3.7551171739708E-18
(PID.TID 0000.0001) %MON ad_trcstat_adptracer03_min   =  -1.7195694963533E-16
(PID.TID 0000.0001) %MON ad_trcstat_adptracer03_mean  =  -5.9455515514706E-21
(PID.TID 0000.0001) %MON ad_trcstat_adptracer03_sd    =   8.4666526548982E-19
(PID.TID 0000.0001) %MON ad_trcstat_adptracer03_del2  =   4.4545254943378E-21
(PID.TID 0000.0001) %MON ad_trcstat_adptracer04_max   =   4.3151508544683E+06
(PID.TID 0000.0001) %MON ad_trcstat_adptracer04_min   =  -3.8665654981207E+07
(PID.TID 0000.0001) %MON ad_trcstat_adptracer04_mean  =  -3.6864197491971E+05
(PID.TID 0000.0001) %MON ad_trcstat_adptracer04_sd    =   3.2520455781586E+06
(PID.TID 0000.0001) %MON ad_trcstat_adptracer04_del2  =   6.8349694496241E+03
(PID.TID 0000.0001) %MON ad_trcstat_adptracer05_max   =   1.2146262577495E+06
(PID.TID 0000.0001) %MON ad_trcstat_adptracer05_min   =  -1.7572736728105E+05
(PID.TID 0000.0001) %MON ad_trcstat_adptracer05_mean  =   1.1576547496923E+04
(PID.TID 0000.0001) %MON ad_trcstat_adptracer05_sd    =   1.0178553423881E+05
(PID.TID 0000.0001) %MON ad_trcstat_adptracer05_del2  =   2.1770511365644E+02
(PID.TID 0000.0001) %MON ad_trcstat_adptracer06_max   =   1.4243986235490E+10
(PID.TID 0000.0001) %MON ad_trcstat_adptracer06_min   =  -1.2896400793625E+10
(PID.TID 0000.0001) %MON ad_trcstat_adptracer06_mean  =   1.4824996902878E+07
(PID.TID 0000.0001) %MON ad_trcstat_adptracer06_sd    =   5.2128707741989E+08
(PID.TID 0000.0001) %MON ad_trcstat_adptracer06_del2  =   2.1341998305372E+06
(PID.TID 0000.0001) %MON ad_trcstat_adptracer07_max   =   0.0000000000000E+00
(PID.TID 0000.0001) %MON ad_trcstat_adptracer07_min   =   0.0000000000000E+00
(PID.TID 0000.0001) %MON ad_trcstat_adptracer07_mean  =   0.0000000000000E+00
(PID.TID 0000.0001) %MON ad_trcstat_adptracer07_sd    =   0.0000000000000E+00
(PID.TID 0000.0001) %MON ad_trcstat_adptracer07_del2  =   0.0000000000000E+00
(PID.TID 0000.0001) %MON ad_trcstat_adptracer08_max   =   0.0000000000000E+00
(PID.TID 0000.0001) %MON ad_trcstat_adptracer08_min   =   0.0000000000000E+00
(PID.TID 0000.0001) %MON ad_trcstat_adptracer08_mean  =   0.0000000000000E+00
(PID.TID 0000.0001) %MON ad_trcstat_adptracer08_sd    =   0.0000000000000E+00
(PID.TID 0000.0001) %MON ad_trcstat_adptracer08_del2  =   0.0000000000000E+00
(PID.TID 0000.0001) %MON ad_trcstat_adptracer09_max   =   0.0000000000000E+00
(PID.TID 0000.0001) %MON ad_trcstat_adptracer09_min   =   0.0000000000000E+00
(PID.TID 0000.0001) %MON ad_trcstat_adptracer09_mean  =   0.0000000000000E+00
(PID.TID 0000.0001) %MON ad_trcstat_adptracer09_sd    =   0.0000000000000E+00
(PID.TID 0000.0001) %MON ad_trcstat_adptracer09_del2  =   0.0000000000000E+00
(PID.TID 0000.0001) // =======================================================
(PID.TID 0000.0001) // End AD_MONITOR ptracer field statistics
(PID.TID 0000.0001) // =======================================================
 cg2d: Sum(rhs),rhsMax =  -5.98099347826064E-12  6.14027435809968E-02
 cg2d: Sum(rhs),rhsMax =  -4.67147209803898E-07  9.26323528205124E+00
 cg2d: Sum(rhs),rhsMax =  -4.66885815342266E-07  9.26842138353026E+00
 cg2d: Sum(rhs),rhsMax =  -4.66625770911833E-07  9.27358728685613E+00
 cg2d: Sum(rhs),rhsMax =  -4.66367836793324E-07  9.27872089555924E+00
 cg2d: Sum(rhs),rhsMax =  -4.66112538788366E-07  9.28381139191536E+00
 cg2d: Sum(rhs),rhsMax =  -7.57139581253341E-07  9.28884856011621E+00
 cg2d: Sum(rhs),rhsMax =  -6.02407013161610E-12  6.13603834701656E-02
 cg2d: Sum(rhs),rhsMax =  -4.67147209803898E-07  9.26323528205124E+00
 cg2d: Sum(rhs),rhsMax =  -4.66885815342266E-07  9.26842138353026E+00
 cg2d: Sum(rhs),rhsMax =  -4.66625770911833E-07  9.27358728685613E+00
 cg2d: Sum(rhs),rhsMax =  -4.66367836793324E-07  9.27872089555924E+00
 cg2d: Sum(rhs),rhsMax =  -9.83905643181515E-07  9.28381141611366E+00
 cg2d: Sum(rhs),rhsMax =  -6.19726492345762E-12  6.09581832195916E-02
 cg2d: Sum(rhs),rhsMax =  -4.67147209803898E-07  9.26323528205124E+00
 cg2d: Sum(rhs),rhsMax =  -4.66885815342266E-07  9.26842138353026E+00
 cg2d: Sum(rhs),rhsMax =  -4.66625770911833E-07  9.27358728685613E+00
 cg2d: Sum(rhs),rhsMax =   1.07218323108782E-06  9.27872127261377E+00
 cg2d: Sum(rhs),rhsMax =  -6.30917540433984E-12  6.10934860503410E-02
 cg2d: Sum(rhs),rhsMax =  -4.67147209803898E-07  9.26323528205124E+00
 cg2d: Sum(rhs),rhsMax =  -4.66885815342266E-07  9.26842138353026E+00
 cg2d: Sum(rhs),rhsMax =  -8.93823731473731E-07  9.27358724873729E+00
 cg2d: Sum(rhs),rhsMax =  -6.26387830493513E-12  6.16722148388822E-02
 cg2d: Sum(rhs),rhsMax =  -4.67147209803898E-07  9.26323528205124E+00
 cg2d: Sum(rhs),rhsMax =  -1.19880240845305E-07  9.26842135072890E+00
 cg2d: Sum(rhs),rhsMax =  -6.32560670510429E-12  6.21465841259341E-02
 cg2d: Sum(rhs),rhsMax =  -4.67146946903085E-07  9.26323528244215E+00
 cg2d: Sum(rhs),rhsMax =  -6.37090380450900E-12  6.21734545553177E-02
 EXTERNAL_FIELDS_LOAD, it=   3600000 : Reading new data, i0,i1=   12    1 (prev=   12    3 )
 DIC_FIELDS_LOAD, it=   3600000 : Reading new data, i0,i1=   12    1 (prev=   12    0 )
 cg2d: Sum(rhs),rhsMax =   1.69318610687696E-07  8.73439699737069E+00
 cg2d: Sum(rhs),rhsMax =   1.69217777568065E-07  8.73957985685053E+00
 cg2d: Sum(rhs),rhsMax =   1.69116930237578E-07  8.74478996407667E+00
 cg2d: Sum(rhs),rhsMax =   1.69015713424869E-07  8.75002525197054E+00
 cg2d: Sum(rhs),rhsMax =   1.68913977915963E-07  8.75528319149979E+00
 cg2d: Sum(rhs),rhsMax =   1.68812391621032E-07  8.76056091159563E+00
 cg2d: Sum(rhs),rhsMax =   1.68710130310501E-07  8.76585531016545E+00
 cg2d: Sum(rhs),rhsMax =   1.68607783734842E-07  8.77116317961867E+00
 cg2d: Sum(rhs),rhsMax =   1.68505465580893E-07  8.77648131488675E+00
 cg2d: Sum(rhs),rhsMax =   1.68403296640918E-07  8.78180660701903E+00
 cg2d: Sum(rhs),rhsMax =   1.68301063752097E-07  8.78713610702002E+00
 cg2d: Sum(rhs),rhsMax =   1.68199015604387E-07  8.79246706727320E+00
 cg2d: Sum(rhs),rhsMax =   1.68096867980694E-07  8.79779694946195E+00
 cg2d: Sum(rhs),rhsMax =   1.67995075628369E-07  8.80312339652564E+00
 cg2d: Sum(rhs),rhsMax =   1.67893297486899E-07  8.80844419596376E+00
 cg2d: Sum(rhs),rhsMax =   1.67792002514489E-07  8.81375727000352E+00
 cg2d: Sum(rhs),rhsMax =   1.67690991759173E-07  8.81906074076855E+00
 cg2d: Sum(rhs),rhsMax =   1.67590364696935E-07  8.82435302858595E+00
 cg2d: Sum(rhs),rhsMax =   1.67489801583542E-07  8.82963296688162E+00
 cg2d: Sum(rhs),rhsMax =   1.67389771377202E-07  8.83489991268453E+00
 cg2d: Sum(rhs),rhsMax =   1.67290018282529E-07  8.84015381998810E+00
 cg2d: Sum(rhs),rhsMax =   1.67191025468583E-07  8.84539524558423E+00
 cg2d: Sum(rhs),rhsMax =   1.67091911862371E-07  8.85062527386172E+00
 cg2d: Sum(rhs),rhsMax =   1.66993110894964E-07  8.85584539161906E+00
 cg2d: Sum(rhs),rhsMax =   1.66895297581959E-07  8.86105731971219E+00
 cg2d: Sum(rhs),rhsMax =   1.66797214262715E-07  8.86626284368505E+00
 cg2d: Sum(rhs),rhsMax =   1.66699088310907E-07  8.87146368108963E+00
 cg2d: Sum(rhs),rhsMax =   1.66601175521919E-07  8.87666140941337E+00
 cg2d: Sum(rhs),rhsMax =   1.66503703269427E-07  8.88185744320308E+00
 cg2d: Sum(rhs),rhsMax =   1.66406401547192E-07  8.88705304968201E+00
 EXTERNAL_FIELDS_LOAD, it=   3600030 : Reading new data, i0,i1=    1    2 (prev=   12    1 )
 DIC_FIELDS_LOAD, it=   3600030 : Reading new data, i0,i1=    1    2 (prev=   12    1 )
 cg2d: Sum(rhs),rhsMax =   1.66308751659017E-07  8.89224939629417E+00
 cg2d: Sum(rhs),rhsMax =   1.66211989949261E-07  8.89742905273518E+00
 cg2d: Sum(rhs),rhsMax =   1.66115810884548E-07  8.90258194312370E+00
 cg2d: Sum(rhs),rhsMax =   1.66020008407486E-07  8.90769862985287E+00
 cg2d: Sum(rhs),rhsMax =   1.65925222006535E-07  8.91277064894441E+00
 cg2d: Sum(rhs),rhsMax =   1.65832325649262E-07  8.91779073567431E+00
 cg2d: Sum(rhs),rhsMax =   1.65739969304468E-07  8.92275296238945E+00
 cg2d: Sum(rhs),rhsMax =   1.65648664562923E-07  8.92765282308104E+00
 cg2d: Sum(rhs),rhsMax =   1.65559029596807E-07  8.93248727153984E+00
 cg2d: Sum(rhs),rhsMax =   1.65470908086718E-07  8.93725470683360E+00
 cg2d: Sum(rhs),rhsMax =   1.65383411854236E-07  8.94195490169141E+00
 cg2d: Sum(rhs),rhsMax =   1.65297855403423E-07  8.94658889014494E+00
 cg2d: Sum(rhs),rhsMax =   1.65213478453552E-07  8.95115882656284E+00
 cg2d: Sum(rhs),rhsMax =   1.65130131790647E-07  8.95566783046152E+00
 cg2d: Sum(rhs),rhsMax =   1.65047609357316E-07  8.96011984139981E+00
 cg2d: Sum(rhs),rhsMax =   1.64966841964542E-07  8.96451949805779E+00
 cg2d: Sum(rhs),rhsMax =   1.64886614584248E-07  8.96887204401274E+00
 cg2d: Sum(rhs),rhsMax =   1.64807353542074E-07  8.97318325974703E+00
 cg2d: Sum(rhs),rhsMax =   1.64728760410071E-07  8.97745941334167E+00
 cg2d: Sum(rhs),rhsMax =   1.64650550971146E-07  8.98170721084718E+00
 cg2d: Sum(rhs),rhsMax =   1.64573251026923E-07  8.98593374417503E+00
 cg2d: Sum(rhs),rhsMax =   1.64495830290434E-07  8.99014648706113E+00
 cg2d: Sum(rhs),rhsMax =   1.64419148518391E-07  8.99435313191228E+00
 cg2d: Sum(rhs),rhsMax =   1.64342466746348E-07  8.99856143301709E+00
 cg2d: Sum(rhs),rhsMax =   1.64265266278107E-07  9.00277891979376E+00
 cg2d: Sum(rhs),rhsMax =   1.64188094231577E-07  9.00701226475977E+00
 cg2d: Sum(rhs),rhsMax =   1.64110602440815E-07  9.01126800872608E+00
 cg2d: Sum(rhs),rhsMax =   1.64032670113556E-07  9.01555262481054E+00
 cg2d: Sum(rhs),rhsMax =   1.63954233300956E-07  9.01987189615712E+00
 cg2d: Sum(rhs),rhsMax =   1.63875164105320E-07  9.02423093235336E+00
 cg2d: Sum(rhs),rhsMax =   1.63795320418103E-07  9.02863410711437E+00
 cg2d: Sum(rhs),rhsMax =   1.63714346967936E-07  9.03308492807320E+00
 cg2d: Sum(rhs),rhsMax =   1.63633295358068E-07  9.03758589550099E+00
 cg2d: Sum(rhs),rhsMax =   1.63551085563540E-07  9.04213843256992E+00
 cg2d: Sum(rhs),rhsMax =   1.63468094172003E-07  9.04674278808053E+00
 cg2d: Sum(rhs),rhsMax =   1.63383937490380E-07  9.05139800068177E+00
 cg2d: Sum(rhs),rhsMax =   1.63299503697090E-07  9.05610191103194E+00
 cg2d: Sum(rhs),rhsMax =   1.63213783821448E-07  9.06085121060704E+00
 cg2d: Sum(rhs),rhsMax =   1.63127957364395E-07  9.06564152308058E+00
 cg2d: Sum(rhs),rhsMax =   1.63041192990931E-07  9.07046751690403E+00
 cg2d: Sum(rhs),rhsMax =   1.62954130189519E-07  9.07532304700718E+00
 cg2d: Sum(rhs),rhsMax =   1.62866854225285E-07  9.08020131376247E+00
 cg2d: Sum(rhs),rhsMax =   1.62779372203659E-07  9.08509502964907E+00
 cg2d: Sum(rhs),rhsMax =   1.62691954130878E-07  9.08999659239780E+00
 cg2d: Sum(rhs),rhsMax =   1.62604585796089E-07  9.09489817218861E+00
 cg2d: Sum(rhs),rhsMax =   1.62517501678394E-07  9.09979218349167E+00
 cg2d: Sum(rhs),rhsMax =   1.62430644934375E-07  9.10467101498796E+00
 cg2d: Sum(rhs),rhsMax =   1.62344292675698E-07  9.10952746457549E+00
 cg2d: Sum(rhs),rhsMax =   1.62258693592321E-07  9.11435477997425E+00
 cg2d: Sum(rhs),rhsMax =   1.62174011109073E-07  9.11914675387257E+00
 cg2d: Sum(rhs),rhsMax =   1.62089747846039E-07  9.12389782853965E+00
 cg2d: Sum(rhs),rhsMax =   1.62006273285442E-07  9.12860319621454E+00
 cg2d: Sum(rhs),rhsMax =   1.61924113228906E-07  9.13325897230795E+00
 cg2d: Sum(rhs),rhsMax =   1.61842727663952E-07  9.13786227569362E+00
 cg2d: Sum(rhs),rhsMax =   1.61762493178230E-07  9.14241138202085E+00
 cg2d: Sum(rhs),rhsMax =   1.61683040289518E-07  9.14690582567222E+00
 cg2d: Sum(rhs),rhsMax =   1.61604830850592E-07  9.15134644986131E+00
 cg2d: Sum(rhs),rhsMax =   1.61527417219531E-07  9.15573538211935E+00
 cg2d: Sum(rhs),rhsMax =   1.61451261249113E-07  9.16007592950651E+00
 cg2d: Sum(rhs),rhsMax =   1.61375858453994E-07  9.16437240256295E+00
 EXTERNAL_FIELDS_LOAD, it=   3600090 : Reading new data, i0,i1=    2    3 (prev=    1    2 )
 DIC_FIELDS_LOAD, it=   3600090 : Reading new data, i0,i1=    2    3 (prev=    1    2 )
 cg2d: Sum(rhs),rhsMax =   1.61301031198491E-07  9.16862988474514E+00
 cg2d: Sum(rhs),rhsMax =   1.61226488160082E-07  9.17287253571495E+00
 cg2d: Sum(rhs),rhsMax =   1.61152193811631E-07  9.17711746016568E+00
 cg2d: Sum(rhs),rhsMax =   1.61077544191812E-07  9.18138108877058E+00
 cg2d: Sum(rhs),rhsMax =   1.61002326137805E-07  9.18567861304476E+00
 cg2d: Sum(rhs),rhsMax =   1.60926205694523E-07  9.19002353014883E+00
 cg2d: Sum(rhs),rhsMax =   1.60849204178248E-07  9.19442728641192E+00
 cg2d: Sum(rhs),rhsMax =   1.60771165269580E-07  9.19889902438565E+00
 cg2d: Sum(rhs),rhsMax =   1.60691676853730E-07  9.20344543538162E+00
 cg2d: Sum(rhs),rhsMax =   1.60610625243862E-07  9.20807071616803E+00
 cg2d: Sum(rhs),rhsMax =  -3.12629090615246E-07  9.21277663457986E+00
 cg2d: Sum(rhs),rhsMax =  -3.12466440277603E-07  9.21756249565763E+00
 cg2d: Sum(rhs),rhsMax =  -3.12302006477694E-07  9.22242554799281E+00
 cg2d: Sum(rhs),rhsMax =  -3.12134964985944E-07  9.22736103942726E+00
 cg2d: Sum(rhs),rhsMax =  -3.11965358434918E-07  9.23236247888854E+00
 cg2d: Sum(rhs),rhsMax =  -3.11794536855814E-07  9.23742188695807E+00
 cg2d: Sum(rhs),rhsMax =  -3.11622379456367E-07  9.24253004489025E+00
 cg2d: Sum(rhs),rhsMax =  -3.11449312562218E-07  9.24767675608752E+00
 cg2d: Sum(rhs),rhsMax =  -3.11274973796571E-07  9.25285102410906E+00
 cg2d: Sum(rhs),rhsMax =  -3.11100585292934E-07  9.25804126752245E+00
 cg2d: Sum(rhs),rhsMax =  -3.12629090615246E-07  9.21277663457986E+00
 cg2d: Sum(rhs),rhsMax =  -3.12466440277603E-07  9.21756249565763E+00
 cg2d: Sum(rhs),rhsMax =  -3.12302006477694E-07  9.22242554799281E+00
 cg2d: Sum(rhs),rhsMax =  -3.12134964985944E-07  9.22736103942726E+00
 cg2d: Sum(rhs),rhsMax =  -3.11965358434918E-07  9.23236247888854E+00
 cg2d: Sum(rhs),rhsMax =  -3.11794536855814E-07  9.23742188695807E+00
 cg2d: Sum(rhs),rhsMax =  -3.11622379456367E-07  9.24253004489025E+00
 cg2d: Sum(rhs),rhsMax =  -3.11449312562218E-07  9.24767675608752E+00
 cg2d: Sum(rhs),rhsMax =  -3.11274973796571E-07  9.25285102410906E+00
 cg2d: Sum(rhs),rhsMax =  -1.33535488799907E-06  9.25804153147647E+00
 cg2d: Sum(rhs),rhsMax =  -6.52411458190727E-12  6.17267702726275E-02
 cg2d: Sum(rhs),rhsMax =  -3.12629090615246E-07  9.21277663457986E+00
 cg2d: Sum(rhs),rhsMax =  -3.12466440277603E-07  9.21756249565763E+00
 cg2d: Sum(rhs),rhsMax =  -3.12302006477694E-07  9.22242554799281E+00
 cg2d: Sum(rhs),rhsMax =  -3.12134964985944E-07  9.22736103942726E+00
 cg2d: Sum(rhs),rhsMax =  -3.11965358434918E-07  9.23236247888854E+00
 cg2d: Sum(rhs),rhsMax =  -3.11794536855814E-07  9.23742188695807E+00
 cg2d: Sum(rhs),rhsMax =  -3.11622379456367E-07  9.24253004489025E+00
 cg2d: Sum(rhs),rhsMax =  -3.11449312562218E-07  9.24767675608752E+00
 cg2d: Sum(rhs),rhsMax =  -9.59333632977177E-07  9.25285101612513E+00
 cg2d: Sum(rhs),rhsMax =  -6.67199628878734E-12  6.09628737281026E-02
 cg2d: Sum(rhs),rhsMax =  -3.12629090615246E-07  9.21277663457986E+00
 cg2d: Sum(rhs),rhsMax =  -3.12466440277603E-07  9.21756249565763E+00
 cg2d: Sum(rhs),rhsMax =  -3.12302006477694E-07  9.22242554799281E+00
 cg2d: Sum(rhs),rhsMax =  -3.12134964985944E-07  9.22736103942726E+00
 cg2d: Sum(rhs),rhsMax =  -3.11965358434918E-07  9.23236247888854E+00
 cg2d: Sum(rhs),rhsMax =  -3.11794536855814E-07  9.23742188695807E+00
 cg2d: Sum(rhs),rhsMax =  -3.11622379456367E-07  9.24253004489025E+00
 cg2d: Sum(rhs),rhsMax =  -4.42117283228072E-07  9.24767657762075E+00
 cg2d: Sum(rhs),rhsMax =  -6.82121026329696E-12  6.00031522895106E-02
 cg2d: Sum(rhs),rhsMax =  -3.12629090615246E-07  9.21277663457986E+00
 cg2d: Sum(rhs),rhsMax =  -3.12466440277603E-07  9.21756249565763E+00
 cg2d: Sum(rhs),rhsMax =  -3.12302006477694E-07  9.22242554799281E+00
 cg2d: Sum(rhs),rhsMax =  -3.12134964985944E-07  9.22736103942726E+00
 cg2d: Sum(rhs),rhsMax =  -3.11965358434918E-07  9.23236247888854E+00
 cg2d: Sum(rhs),rhsMax =  -3.11794536855814E-07  9.23742188695807E+00
 cg2d: Sum(rhs),rhsMax =  -6.13866369292282E-07  9.24252966447103E+00
 cg2d: Sum(rhs),rhsMax =  -7.06901204239330E-12  5.88958967704167E-02
 cg2d: Sum(rhs),rhsMax =  -3.12629090615246E-07  9.21277663457986E+00
 cg2d: Sum(rhs),rhsMax =  -3.12466440277603E-07  9.21756249565763E+00
 cg2d: Sum(rhs),rhsMax =  -3.12302006477694E-07  9.22242554799281E+00
 cg2d: Sum(rhs),rhsMax =  -3.12134964985944E-07  9.22736103942726E+00
 cg2d: Sum(rhs),rhsMax =  -3.11965358434918E-07  9.23236247888854E+00
 cg2d: Sum(rhs),rhsMax =  -1.13498280995827E-07  9.23742193664122E+00
 cg2d: Sum(rhs),rhsMax =  -7.31947835674873E-12  5.76419981864713E-02
 cg2d: Sum(rhs),rhsMax =  -3.12629090615246E-07  9.21277663457986E+00
 cg2d: Sum(rhs),rhsMax =  -3.12466440277603E-07  9.21756249565763E+00
 cg2d: Sum(rhs),rhsMax =  -3.12302006477694E-07  9.22242554799281E+00
 cg2d: Sum(rhs),rhsMax =  -3.12134964985944E-07  9.22736103942726E+00
 cg2d: Sum(rhs),rhsMax =  -7.94499115386316E-07  9.23236220052961E+00
 cg2d: Sum(rhs),rhsMax =  -7.37188088351104E-12  5.79239734319425E-02
 cg2d: Sum(rhs),rhsMax =  -3.12629090615246E-07  9.21277663457986E+00
 cg2d: Sum(rhs),rhsMax =  -3.12466440277603E-07  9.21756249565763E+00
 cg2d: Sum(rhs),rhsMax =  -3.12302006477694E-07  9.22242554799281E+00
 cg2d: Sum(rhs),rhsMax =  -1.67630262382090E-06  9.22736105613863E+00
 cg2d: Sum(rhs),rhsMax =  -7.27595761418343E-12  5.87094077193291E-02
 cg2d: Sum(rhs),rhsMax =  -3.12629090615246E-07  9.21277663457986E+00
 cg2d: Sum(rhs),rhsMax =  -3.12466440277603E-07  9.21756249565763E+00
 cg2d: Sum(rhs),rhsMax =  -3.84049840818079E-08  9.22242552429553E+00
 cg2d: Sum(rhs),rhsMax =  -7.40341121741039E-12  5.92407916701920E-02
 cg2d: Sum(rhs),rhsMax =  -3.12629090615246E-07  9.21277663457986E+00
 cg2d: Sum(rhs),rhsMax =  -7.60512293140891E-07  9.21756284689646E+00
 cg2d: Sum(rhs),rhsMax =  -7.35500549353674E-12  5.95995722738370E-02
 cg2d: Sum(rhs),rhsMax =  -3.12628841925289E-07  9.21277663423349E+00
 cg2d: Sum(rhs),rhsMax =  -7.43050065921125E-12  5.97282258792485E-02
 EXTERNAL_FIELDS_LOAD, it=   3600000 : Reading new data, i0,i1=   12    1 (prev=   12    3 )
 DIC_FIELDS_LOAD, it=   3600000 : Reading new data, i0,i1=   12    1 (prev=   12    0 )
 cg2d: Sum(rhs),rhsMax =   1.69318610687696E-07  8.73439699737069E+00
 cg2d: Sum(rhs),rhsMax =   1.69217777568065E-07  8.73957985685053E+00
 cg2d: Sum(rhs),rhsMax =   1.69116930237578E-07  8.74478996407667E+00
 cg2d: Sum(rhs),rhsMax =   1.69015713424869E-07  8.75002525197054E+00
 cg2d: Sum(rhs),rhsMax =   1.68913977915963E-07  8.75528319149979E+00
 cg2d: Sum(rhs),rhsMax =   1.68812391621032E-07  8.76056091159563E+00
 cg2d: Sum(rhs),rhsMax =   1.68710130310501E-07  8.76585531016545E+00
 cg2d: Sum(rhs),rhsMax =   1.68607783734842E-07  8.77116317961867E+00
 cg2d: Sum(rhs),rhsMax =   1.68505465580893E-07  8.77648131488675E+00
 cg2d: Sum(rhs),rhsMax =   1.68403296640918E-07  8.78180660701903E+00
 cg2d: Sum(rhs),rhsMax =   1.68301063752097E-07  8.78713610702002E+00
 cg2d: Sum(rhs),rhsMax =   1.68199015604387E-07  8.79246706727320E+00
 cg2d: Sum(rhs),rhsMax =   1.68096867980694E-07  8.79779694946195E+00
 cg2d: Sum(rhs),rhsMax =   1.67995075628369E-07  8.80312339652564E+00
 cg2d: Sum(rhs),rhsMax =   1.67893297486899E-07  8.80844419596376E+00
 cg2d: Sum(rhs),rhsMax =   1.67792002514489E-07  8.81375727000352E+00
 cg2d: Sum(rhs),rhsMax =   1.67690991759173E-07  8.81906074076855E+00
 cg2d: Sum(rhs),rhsMax =   1.67590364696935E-07  8.82435302858595E+00
 cg2d: Sum(rhs),rhsMax =   1.67489801583542E-07  8.82963296688162E+00
 cg2d: Sum(rhs),rhsMax =   1.67389771377202E-07  8.83489991268453E+00
 cg2d: Sum(rhs),rhsMax =   1.67290018282529E-07  8.84015381998810E+00
 cg2d: Sum(rhs),rhsMax =   1.67191025468583E-07  8.84539524558423E+00
 cg2d: Sum(rhs),rhsMax =   1.67091911862371E-07  8.85062527386172E+00
 cg2d: Sum(rhs),rhsMax =   1.66993110894964E-07  8.85584539161906E+00
 cg2d: Sum(rhs),rhsMax =   1.66895297581959E-07  8.86105731971219E+00
 cg2d: Sum(rhs),rhsMax =   1.66797214262715E-07  8.86626284368505E+00
 cg2d: Sum(rhs),rhsMax =   1.66699088310907E-07  8.87146368108963E+00
 cg2d: Sum(rhs),rhsMax =   1.66601175521919E-07  8.87666140941337E+00
 cg2d: Sum(rhs),rhsMax =   1.66503703269427E-07  8.88185744320308E+00
 cg2d: Sum(rhs),rhsMax =   1.66406401547192E-07  8.88705304968201E+00
 EXTERNAL_FIELDS_LOAD, it=   3600030 : Reading new data, i0,i1=    1    2 (prev=   12    1 )
 DIC_FIELDS_LOAD, it=   3600030 : Reading new data, i0,i1=    1    2 (prev=   12    1 )
 cg2d: Sum(rhs),rhsMax =   1.66308751659017E-07  8.89224939629417E+00
 cg2d: Sum(rhs),rhsMax =   1.66211989949261E-07  8.89742905273518E+00
 cg2d: Sum(rhs),rhsMax =   1.66115810884548E-07  8.90258194312370E+00
 cg2d: Sum(rhs),rhsMax =   1.66020008407486E-07  8.90769862985287E+00
 cg2d: Sum(rhs),rhsMax =   1.65925222006535E-07  8.91277064894441E+00
 cg2d: Sum(rhs),rhsMax =   1.65832325649262E-07  8.91779073567431E+00
 cg2d: Sum(rhs),rhsMax =   1.65739969304468E-07  8.92275296238945E+00
 cg2d: Sum(rhs),rhsMax =   1.65648664562923E-07  8.92765282308104E+00
 cg2d: Sum(rhs),rhsMax =   1.65559029596807E-07  8.93248727153984E+00
 cg2d: Sum(rhs),rhsMax =   1.65470908086718E-07  8.93725470683360E+00
 cg2d: Sum(rhs),rhsMax =   1.65383411854236E-07  8.94195490169141E+00
 cg2d: Sum(rhs),rhsMax =   1.65297855403423E-07  8.94658889014494E+00
 cg2d: Sum(rhs),rhsMax =   1.65213478453552E-07  8.95115882656284E+00
 cg2d: Sum(rhs),rhsMax =   1.65130131790647E-07  8.95566783046152E+00
 cg2d: Sum(rhs),rhsMax =   1.65047609357316E-07  8.96011984139981E+00
 cg2d: Sum(rhs),rhsMax =   1.64966841964542E-07  8.96451949805779E+00
 cg2d: Sum(rhs),rhsMax =   1.64886614584248E-07  8.96887204401274E+00
 cg2d: Sum(rhs),rhsMax =   1.64807353542074E-07  8.97318325974703E+00
 cg2d: Sum(rhs),rhsMax =   1.64728760410071E-07  8.97745941334167E+00
 cg2d: Sum(rhs),rhsMax =   1.64650550971146E-07  8.98170721084718E+00
 cg2d: Sum(rhs),rhsMax =   1.64573251026923E-07  8.98593374417503E+00
 cg2d: Sum(rhs),rhsMax =   1.64495830290434E-07  8.99014648706113E+00
 cg2d: Sum(rhs),rhsMax =   1.64419148518391E-07  8.99435313191228E+00
 cg2d: Sum(rhs),rhsMax =   1.64342466746348E-07  8.99856143301709E+00
 cg2d: Sum(rhs),rhsMax =   1.64265266278107E-07  9.00277891979376E+00
 cg2d: Sum(rhs),rhsMax =   1.64188094231577E-07  9.00701226475977E+00
 cg2d: Sum(rhs),rhsMax =   1.64110602440815E-07  9.01126800872608E+00
 cg2d: Sum(rhs),rhsMax =   1.64032670113556E-07  9.01555262481054E+00
 cg2d: Sum(rhs),rhsMax =   1.63954233300956E-07  9.01987189615712E+00
 cg2d: Sum(rhs),rhsMax =   1.63875164105320E-07  9.02423093235336E+00
 cg2d: Sum(rhs),rhsMax =   1.63795320418103E-07  9.02863410711437E+00
 cg2d: Sum(rhs),rhsMax =   1.63714346967936E-07  9.03308492807320E+00
 cg2d: Sum(rhs),rhsMax =   1.63633295358068E-07  9.03758589550099E+00
 cg2d: Sum(rhs),rhsMax =   1.63551085563540E-07  9.04213843256992E+00
 cg2d: Sum(rhs),rhsMax =   1.63468094172003E-07  9.04674278808053E+00
 cg2d: Sum(rhs),rhsMax =   1.63383937490380E-07  9.05139800068177E+00
 cg2d: Sum(rhs),rhsMax =   1.63299503697090E-07  9.05610191103194E+00
 cg2d: Sum(rhs),rhsMax =   1.63213783821448E-07  9.06085121060704E+00
 cg2d: Sum(rhs),rhsMax =   1.63127957364395E-07  9.06564152308058E+00
 cg2d: Sum(rhs),rhsMax =   1.63041192990931E-07  9.07046751690403E+00
 cg2d: Sum(rhs),rhsMax =   1.62954130189519E-07  9.07532304700718E+00
 cg2d: Sum(rhs),rhsMax =   1.62866854225285E-07  9.08020131376247E+00
 cg2d: Sum(rhs),rhsMax =   1.62779372203659E-07  9.08509502964907E+00
 cg2d: Sum(rhs),rhsMax =   1.62691954130878E-07  9.08999659239780E+00
 cg2d: Sum(rhs),rhsMax =   1.62604585796089E-07  9.09489817218861E+00
 cg2d: Sum(rhs),rhsMax =   1.62517501678394E-07  9.09979218349167E+00
 cg2d: Sum(rhs),rhsMax =   1.62430644934375E-07  9.10467101498796E+00
 cg2d: Sum(rhs),rhsMax =   1.62344292675698E-07  9.10952746457549E+00
 cg2d: Sum(rhs),rhsMax =   1.62258693592321E-07  9.11435477997425E+00
 cg2d: Sum(rhs),rhsMax =   1.62174011109073E-07  9.11914675387257E+00
 cg2d: Sum(rhs),rhsMax =   1.62089747846039E-07  9.12389782853965E+00
 cg2d: Sum(rhs),rhsMax =   1.62006273285442E-07  9.12860319621454E+00
 cg2d: Sum(rhs),rhsMax =   1.61924113228906E-07  9.13325897230795E+00
 cg2d: Sum(rhs),rhsMax =   1.61842727663952E-07  9.13786227569362E+00
 cg2d: Sum(rhs),rhsMax =   1.61762493178230E-07  9.14241138202085E+00
 cg2d: Sum(rhs),rhsMax =   1.61683040289518E-07  9.14690582567222E+00
 cg2d: Sum(rhs),rhsMax =   1.61604830850592E-07  9.15134644986131E+00
 cg2d: Sum(rhs),rhsMax =   1.61527417219531E-07  9.15573538211935E+00
 cg2d: Sum(rhs),rhsMax =   1.61451261249113E-07  9.16007592950651E+00
 cg2d: Sum(rhs),rhsMax =   1.61375858453994E-07  9.16437240256295E+00
 EXTERNAL_FIELDS_LOAD, it=   3600090 : Reading new data, i0,i1=    2    3 (prev=    1    2 )
 DIC_FIELDS_LOAD, it=   3600090 : Reading new data, i0,i1=    2    3 (prev=    1    2 )
 cg2d: Sum(rhs),rhsMax =  -1.57640797482372E-06  9.16862986379397E+00
 cg2d: Sum(rhs),rhsMax =  -1.57567851033491E-06  9.17287249364157E+00
 cg2d: Sum(rhs),rhsMax =  -1.57494968533456E-06  9.17711735241063E+00
 cg2d: Sum(rhs),rhsMax =  -1.57421808211211E-06  9.18138086021463E+00
 cg2d: Sum(rhs),rhsMax =  -1.57348152640679E-06  9.18567820264835E+00
 cg2d: Sum(rhs),rhsMax =  -1.57273739631592E-06  9.19002287506975E+00
 cg2d: Sum(rhs),rhsMax =  -1.57198422812144E-06  9.19442632684981E+00
 cg2d: Sum(rhs),rhsMax =  -1.57122040889135E-06  9.19889770856418E+00
 cg2d: Sum(rhs),rhsMax =  -1.57044433990450E-06  9.20344372348451E+00
 cg2d: Sum(rhs),rhsMax =  -1.56965526798558E-06  9.20806858250834E+00
 EXTERNAL_FIELDS_LOAD, it=   3600090 : Reading new data, i0,i1=    2    3 (prev=    1    3 )
 DIC_FIELDS_LOAD, it=   3600090 : Reading new data, i0,i1=    2    3 (prev=    1    2 )
 cg2d: Sum(rhs),rhsMax =  -1.57640797482372E-06  9.16862986379397E+00
 cg2d: Sum(rhs),rhsMax =  -1.57567851033491E-06  9.17287249364157E+00
 cg2d: Sum(rhs),rhsMax =  -1.57494968533456E-06  9.17711735241063E+00
 cg2d: Sum(rhs),rhsMax =  -1.57421808211211E-06  9.18138086021463E+00
 cg2d: Sum(rhs),rhsMax =  -1.57348152640679E-06  9.18567820264835E+00
 cg2d: Sum(rhs),rhsMax =  -1.57273739631592E-06  9.19002287506975E+00
 cg2d: Sum(rhs),rhsMax =  -1.57198422812144E-06  9.19442632684981E+00
 cg2d: Sum(rhs),rhsMax =  -1.57122040889135E-06  9.19889770856418E+00
 cg2d: Sum(rhs),rhsMax =  -1.57044433990450E-06  9.20344372348451E+00
 cg2d: Sum(rhs),rhsMax =  -1.92327567560824E-06  9.20806876835216E+00
 cg2d: Sum(rhs),rhsMax =  -7.58149099056027E-12  5.96355969930694E-02
 EXTERNAL_FIELDS_LOAD, it=   3600090 : Reading new data, i0,i1=    2    3 (prev=    1    3 )
 DIC_FIELDS_LOAD, it=   3600090 : Reading new data, i0,i1=    2    3 (prev=    1    2 )
 cg2d: Sum(rhs),rhsMax =  -1.57640797482372E-06  9.16862986379397E+00
 cg2d: Sum(rhs),rhsMax =  -1.57567851033491E-06  9.17287249364157E+00
 cg2d: Sum(rhs),rhsMax =  -1.57494968533456E-06  9.17711735241063E+00
 cg2d: Sum(rhs),rhsMax =  -1.57421808211211E-06  9.18138086021463E+00
 cg2d: Sum(rhs),rhsMax =  -1.57348152640679E-06  9.18567820264835E+00
 cg2d: Sum(rhs),rhsMax =  -1.57273739631592E-06  9.19002287506975E+00
 cg2d: Sum(rhs),rhsMax =  -1.57198422812144E-06  9.19442632684981E+00
 cg2d: Sum(rhs),rhsMax =  -1.57122040889135E-06  9.19889770856418E+00
 cg2d: Sum(rhs),rhsMax =  -1.37984890358211E-06  9.20344393891072E+00
 cg2d: Sum(rhs),rhsMax =  -7.59792229132472E-12  6.02076855383669E-02
 EXTERNAL_FIELDS_LOAD, it=   3600090 : Reading new data, i0,i1=    2    3 (prev=    1    3 )
 DIC_FIELDS_LOAD, it=   3600090 : Reading new data, i0,i1=    2    3 (prev=    1    2 )
 cg2d: Sum(rhs),rhsMax =  -1.57640797482372E-06  9.16862986379397E+00
 cg2d: Sum(rhs),rhsMax =  -1.57567851033491E-06  9.17287249364157E+00
 cg2d: Sum(rhs),rhsMax =  -1.57494968533456E-06  9.17711735241063E+00
 cg2d: Sum(rhs),rhsMax =  -1.57421808211211E-06  9.18138086021463E+00
 cg2d: Sum(rhs),rhsMax =  -1.57348152640679E-06  9.18567820264835E+00
 cg2d: Sum(rhs),rhsMax =  -1.57273739631592E-06  9.19002287506975E+00
 cg2d: Sum(rhs),rhsMax =  -1.57198422812144E-06  9.19442632684981E+00
 cg2d: Sum(rhs),rhsMax =  -2.43257837695410E-06  9.19889803481841E+00
 cg2d: Sum(rhs),rhsMax =  -7.60769225394142E-12  6.04018549808931E-02
 EXTERNAL_FIELDS_LOAD, it=   3600090 : Reading new data, i0,i1=    2    3 (prev=    1    3 )
 DIC_FIELDS_LOAD, it=   3600090 : Reading new data, i0,i1=    2    3 (prev=    1    2 )
 cg2d: Sum(rhs),rhsMax =  -1.57640797482372E-06  9.16862986379397E+00
 cg2d: Sum(rhs),rhsMax =  -1.57567851033491E-06  9.17287249364157E+00
 cg2d: Sum(rhs),rhsMax =  -1.57494968533456E-06  9.17711735241063E+00
 cg2d: Sum(rhs),rhsMax =  -1.57421808211211E-06  9.18138086021463E+00
 cg2d: Sum(rhs),rhsMax =  -1.57348152640679E-06  9.18567820264835E+00
 cg2d: Sum(rhs),rhsMax =  -1.57273739631592E-06  9.19002287506975E+00
 cg2d: Sum(rhs),rhsMax =  -1.91991920672763E-06  9.19442653781503E+00
 cg2d: Sum(rhs),rhsMax =  -7.71027686141679E-12  6.05257074899244E-02
 EXTERNAL_FIELDS_LOAD, it=   3600090 : Reading new data, i0,i1=    2    3 (prev=    1    3 )
 DIC_FIELDS_LOAD, it=   3600090 : Reading new data, i0,i1=    2    3 (prev=    1    2 )
 cg2d: Sum(rhs),rhsMax =  -1.57640797482372E-06  9.16862986379397E+00
 cg2d: Sum(rhs),rhsMax =  -1.57567851033491E-06  9.17287249364157E+00
 cg2d: Sum(rhs),rhsMax =  -1.57494968533456E-06  9.17711735241063E+00
 cg2d: Sum(rhs),rhsMax =  -1.57421808211211E-06  9.18138086021463E+00
 cg2d: Sum(rhs),rhsMax =  -1.57348152640679E-06  9.18567820264835E+00
 cg2d: Sum(rhs),rhsMax =  -1.98022313924184E-06  9.19002325816176E+00
 cg2d: Sum(rhs),rhsMax =  -7.77733433210415E-12  6.07008986830591E-02
 EXTERNAL_FIELDS_LOAD, it=   3600090 : Reading new data, i0,i1=    2    3 (prev=    1    3 )
 DIC_FIELDS_LOAD, it=   3600090 : Reading new data, i0,i1=    2    3 (prev=    1    2 )
 cg2d: Sum(rhs),rhsMax =  -1.57640797482372E-06  9.16862986379397E+00
 cg2d: Sum(rhs),rhsMax =  -1.57567851033491E-06  9.17287249364157E+00
 cg2d: Sum(rhs),rhsMax =  -1.57494968533456E-06  9.17711735241063E+00
 cg2d: Sum(rhs),rhsMax =  -1.57421808211211E-06  9.18138086021463E+00
 cg2d: Sum(rhs),rhsMax =  -1.35181347360458E-06  9.18567796999157E+00
 cg2d: Sum(rhs),rhsMax =  -7.80886466600350E-12  6.07309231051811E-02
 EXTERNAL_FIELDS_LOAD, it=   3600090 : Reading new data, i0,i1=    2    3 (prev=    1    3 )
 DIC_FIELDS_LOAD, it=   3600090 : Reading new data, i0,i1=    2    3 (prev=    1    2 )
 cg2d: Sum(rhs),rhsMax =  -1.57640797482372E-06  9.16862986379397E+00
 cg2d: Sum(rhs),rhsMax =  -1.57567851033491E-06  9.17287249364157E+00
 cg2d: Sum(rhs),rhsMax =  -1.57494968533456E-06  9.17711735241063E+00
 cg2d: Sum(rhs),rhsMax =  -1.74478440584380E-06  9.18138087744877E+00
 cg2d: Sum(rhs),rhsMax =  -8.18056733464800E-12  5.89008652297701E-02
 EXTERNAL_FIELDS_LOAD, it=   3600090 : Reading new data, i0,i1=    2    3 (prev=    1    3 )
 DIC_FIELDS_LOAD, it=   3600090 : Reading new data, i0,i1=    2    3 (prev=    1    2 )
 cg2d: Sum(rhs),rhsMax =  -1.57640797482372E-06  9.16862986379397E+00
 cg2d: Sum(rhs),rhsMax =  -1.57567851033491E-06  9.17287249364157E+00
 cg2d: Sum(rhs),rhsMax =  -9.10206345849929E-07  9.17711718226163E+00
 cg2d: Sum(rhs),rhsMax =  -8.05977506956879E-12  6.02137162152634E-02
 EXTERNAL_FIELDS_LOAD, it=   3600090 : Reading new data, i0,i1=    2    3 (prev=    1    3 )
 DIC_FIELDS_LOAD, it=   3600090 : Reading new data, i0,i1=    2    3 (prev=    1    2 )
 cg2d: Sum(rhs),rhsMax =  -1.57640797482372E-06  9.16862986379397E+00
 cg2d: Sum(rhs),rhsMax =  -7.63722262320243E-07  9.17287237409650E+00
 cg2d: Sum(rhs),rhsMax =  -7.73292541111914E-12  6.39414188936268E-02
 EXTERNAL_FIELDS_LOAD, it=   3600090 : Reading new data, i0,i1=    2    3 (prev=    1    3 )
 DIC_FIELDS_LOAD, it=   3600090 : Reading new data, i0,i1=    2    3 (prev=    1    2 )
 cg2d: Sum(rhs),rhsMax =  -1.57640798192915E-06  9.16862986382107E+00
 cg2d: Sum(rhs),rhsMax =  -7.41406935844680E-12  6.76293668425406E-02
 EXTERNAL_FIELDS_LOAD, it=   3600000 : Reading new data, i0,i1=   12    1 (prev=   12    3 )
 DIC_FIELDS_LOAD, it=   3600000 : Reading new data, i0,i1=   12    1 (prev=   12    0 )
 cg2d: Sum(rhs),rhsMax =   1.69318610687696E-07  8.73439699737069E+00
 cg2d: Sum(rhs),rhsMax =   1.69217777568065E-07  8.73957985685053E+00
 cg2d: Sum(rhs),rhsMax =   1.69116930237578E-07  8.74478996407667E+00
 cg2d: Sum(rhs),rhsMax =   1.69015713424869E-07  8.75002525197054E+00
 cg2d: Sum(rhs),rhsMax =   1.68913977915963E-07  8.75528319149979E+00
 cg2d: Sum(rhs),rhsMax =   1.68812391621032E-07  8.76056091159563E+00
 cg2d: Sum(rhs),rhsMax =   1.68710130310501E-07  8.76585531016545E+00
 cg2d: Sum(rhs),rhsMax =   1.68607783734842E-07  8.77116317961867E+00
 cg2d: Sum(rhs),rhsMax =   1.68505465580893E-07  8.77648131488675E+00
 cg2d: Sum(rhs),rhsMax =   1.68403296640918E-07  8.78180660701903E+00
 cg2d: Sum(rhs),rhsMax =   1.68301063752097E-07  8.78713610702002E+00
 cg2d: Sum(rhs),rhsMax =   1.68199015604387E-07  8.79246706727320E+00
 cg2d: Sum(rhs),rhsMax =   1.68096867980694E-07  8.79779694946195E+00
 cg2d: Sum(rhs),rhsMax =   1.67995075628369E-07  8.80312339652564E+00
 cg2d: Sum(rhs),rhsMax =   1.67893297486899E-07  8.80844419596376E+00
 cg2d: Sum(rhs),rhsMax =   1.67792002514489E-07  8.81375727000352E+00
 cg2d: Sum(rhs),rhsMax =   1.67690991759173E-07  8.81906074076855E+00
 cg2d: Sum(rhs),rhsMax =   1.67590364696935E-07  8.82435302858595E+00
 cg2d: Sum(rhs),rhsMax =   1.67489801583542E-07  8.82963296688162E+00
 cg2d: Sum(rhs),rhsMax =   1.67389771377202E-07  8.83489991268453E+00
 cg2d: Sum(rhs),rhsMax =   1.67290018282529E-07  8.84015381998810E+00
 cg2d: Sum(rhs),rhsMax =   1.67191025468583E-07  8.84539524558423E+00
 cg2d: Sum(rhs),rhsMax =   1.67091911862371E-07  8.85062527386172E+00
 cg2d: Sum(rhs),rhsMax =   1.66993110894964E-07  8.85584539161906E+00
 cg2d: Sum(rhs),rhsMax =   1.66895297581959E-07  8.86105731971219E+00
 cg2d: Sum(rhs),rhsMax =   1.66797214262715E-07  8.86626284368505E+00
 cg2d: Sum(rhs),rhsMax =   1.66699088310907E-07  8.87146368108963E+00
 cg2d: Sum(rhs),rhsMax =   1.66601175521919E-07  8.87666140941337E+00
 cg2d: Sum(rhs),rhsMax =   1.66503703269427E-07  8.88185744320308E+00
 cg2d: Sum(rhs),rhsMax =   1.66406401547192E-07  8.88705304968201E+00
 EXTERNAL_FIELDS_LOAD, it=   3600030 : Reading new data, i0,i1=    1    2 (prev=   12    1 )
 DIC_FIELDS_LOAD, it=   3600030 : Reading new data, i0,i1=    1    2 (prev=   12    1 )
 cg2d: Sum(rhs),rhsMax =   1.66308751659017E-07  8.89224939629417E+00
 cg2d: Sum(rhs),rhsMax =   1.66211989949261E-07  8.89742905273518E+00
 cg2d: Sum(rhs),rhsMax =   1.66115810884548E-07  8.90258194312370E+00
 cg2d: Sum(rhs),rhsMax =   1.66020008407486E-07  8.90769862985287E+00
 cg2d: Sum(rhs),rhsMax =   1.65925222006535E-07  8.91277064894441E+00
 cg2d: Sum(rhs),rhsMax =   1.65832325649262E-07  8.91779073567431E+00
 cg2d: Sum(rhs),rhsMax =   1.65739969304468E-07  8.92275296238945E+00
 cg2d: Sum(rhs),rhsMax =   1.65648664562923E-07  8.92765282308104E+00
 cg2d: Sum(rhs),rhsMax =   1.65559029596807E-07  8.93248727153984E+00
 cg2d: Sum(rhs),rhsMax =   1.65470908086718E-07  8.93725470683360E+00
 cg2d: Sum(rhs),rhsMax =   1.65383411854236E-07  8.94195490169141E+00
 cg2d: Sum(rhs),rhsMax =   1.65297855403423E-07  8.94658889014494E+00
 cg2d: Sum(rhs),rhsMax =   1.65213478453552E-07  8.95115882656284E+00
 cg2d: Sum(rhs),rhsMax =   1.65130131790647E-07  8.95566783046152E+00
 cg2d: Sum(rhs),rhsMax =   1.65047609357316E-07  8.96011984139981E+00
 cg2d: Sum(rhs),rhsMax =   1.64966841964542E-07  8.96451949805779E+00
 cg2d: Sum(rhs),rhsMax =   1.64886614584248E-07  8.96887204401274E+00
 cg2d: Sum(rhs),rhsMax =   1.64807353542074E-07  8.97318325974703E+00
 cg2d: Sum(rhs),rhsMax =   1.64728760410071E-07  8.97745941334167E+00
 cg2d: Sum(rhs),rhsMax =   1.64650550971146E-07  8.98170721084718E+00
 cg2d: Sum(rhs),rhsMax =   1.64573251026923E-07  8.98593374417503E+00
 cg2d: Sum(rhs),rhsMax =   1.64495830290434E-07  8.99014648706113E+00
 cg2d: Sum(rhs),rhsMax =   1.64419148518391E-07  8.99435313191228E+00
 cg2d: Sum(rhs),rhsMax =   1.64342466746348E-07  8.99856143301709E+00
 cg2d: Sum(rhs),rhsMax =   1.64265266278107E-07  9.00277891979376E+00
 cg2d: Sum(rhs),rhsMax =   1.64188094231577E-07  9.00701226475977E+00
 cg2d: Sum(rhs),rhsMax =   1.64110602440815E-07  9.01126800872608E+00
 cg2d: Sum(rhs),rhsMax =   1.64032670113556E-07  9.01555262481054E+00
 cg2d: Sum(rhs),rhsMax =   1.63954233300956E-07  9.01987189615712E+00
 cg2d: Sum(rhs),rhsMax =   1.63875164105320E-07  9.02423093235336E+00
 cg2d: Sum(rhs),rhsMax =   1.63795320418103E-07  9.02863410711437E+00
 cg2d: Sum(rhs),rhsMax =   1.63714346967936E-07  9.03308492807320E+00
 cg2d: Sum(rhs),rhsMax =   1.63633295358068E-07  9.03758589550099E+00
 cg2d: Sum(rhs),rhsMax =   1.63551085563540E-07  9.04213843256992E+00
 cg2d: Sum(rhs),rhsMax =   1.63468094172003E-07  9.04674278808053E+00
 cg2d: Sum(rhs),rhsMax =   1.63383937490380E-07  9.05139800068177E+00
 cg2d: Sum(rhs),rhsMax =   1.63299503697090E-07  9.05610191103194E+00
 cg2d: Sum(rhs),rhsMax =   1.63213783821448E-07  9.06085121060704E+00
 cg2d: Sum(rhs),rhsMax =   1.63127957364395E-07  9.06564152308058E+00
 cg2d: Sum(rhs),rhsMax =   1.63041192990931E-07  9.07046751690403E+00
 cg2d: Sum(rhs),rhsMax =   1.62954130189519E-07  9.07532304700718E+00
 cg2d: Sum(rhs),rhsMax =   1.62866854225285E-07  9.08020131376247E+00
 cg2d: Sum(rhs),rhsMax =   1.62779372203659E-07  9.08509502964907E+00
 cg2d: Sum(rhs),rhsMax =   1.62691954130878E-07  9.08999659239780E+00
 cg2d: Sum(rhs),rhsMax =   1.62604585796089E-07  9.09489817218861E+00
 cg2d: Sum(rhs),rhsMax =   1.62517501678394E-07  9.09979218349167E+00
 cg2d: Sum(rhs),rhsMax =   1.62430644934375E-07  9.10467101498796E+00
 cg2d: Sum(rhs),rhsMax =   1.62344292675698E-07  9.10952746457549E+00
 cg2d: Sum(rhs),rhsMax =   1.62258693592321E-07  9.11435477997425E+00
 cg2d: Sum(rhs),rhsMax =   1.62174011109073E-07  9.11914675387257E+00
 cg2d: Sum(rhs),rhsMax =  -4.15414817211968E-07  9.12389787817237E+00
 cg2d: Sum(rhs),rhsMax =  -4.15200290149187E-07  9.12860323343309E+00
 cg2d: Sum(rhs),rhsMax =  -4.14988605257349E-07  9.13325896433659E+00
 cg2d: Sum(rhs),rhsMax =  -4.14779506741070E-07  9.13786216764694E+00
 cg2d: Sum(rhs),rhsMax =  -4.14572539852998E-07  9.14241110683918E+00
 cg2d: Sum(rhs),rhsMax =  -4.14368692247535E-07  9.14690531682561E+00
 cg2d: Sum(rhs),rhsMax =  -4.14167558915324E-07  9.15134565147359E+00
 cg2d: Sum(rhs),rhsMax =  -4.13968621160166E-07  9.15573425418110E+00
 cg2d: Sum(rhs),rhsMax =  -4.13772390572831E-07  9.16007444849900E+00
 cg2d: Sum(rhs),rhsMax =  -4.13577915026053E-07  9.16437055924012E+00
 cg2d: Sum(rhs),rhsMax =  -4.15414817211968E-07  9.12389787817237E+00
 cg2d: Sum(rhs),rhsMax =  -4.15200290149187E-07  9.12860323343309E+00
 cg2d: Sum(rhs),rhsMax =  -4.14988605257349E-07  9.13325896433659E+00
 cg2d: Sum(rhs),rhsMax =  -4.14779506741070E-07  9.13786216764694E+00
 cg2d: Sum(rhs),rhsMax =  -4.14572539852998E-07  9.14241110683918E+00
 cg2d: Sum(rhs),rhsMax =  -4.14368692247535E-07  9.14690531682561E+00
 cg2d: Sum(rhs),rhsMax =  -4.14167558915324E-07  9.15134565147359E+00
 cg2d: Sum(rhs),rhsMax =  -4.13968621160166E-07  9.15573425418110E+00
 cg2d: Sum(rhs),rhsMax =  -4.13772390572831E-07  9.16007444849900E+00
 cg2d: Sum(rhs),rhsMax =   2.90191906060500E-08  9.16437067725760E+00
 cg2d: Sum(rhs),rhsMax =  -7.60058682658382E-12  6.68074949296730E-02
 cg2d: Sum(rhs),rhsMax =  -4.15414817211968E-07  9.12389787817237E+00
 cg2d: Sum(rhs),rhsMax =  -4.15200290149187E-07  9.12860323343309E+00
 cg2d: Sum(rhs),rhsMax =  -4.14988605257349E-07  9.13325896433659E+00
 cg2d: Sum(rhs),rhsMax =  -4.14779506741070E-07  9.13786216764694E+00
 cg2d: Sum(rhs),rhsMax =  -4.14572539852998E-07  9.14241110683918E+00
 cg2d: Sum(rhs),rhsMax =  -4.14368692247535E-07  9.14690531682561E+00
 cg2d: Sum(rhs),rhsMax =  -4.14167558915324E-07  9.15134565147359E+00
 cg2d: Sum(rhs),rhsMax =  -4.13968621160166E-07  9.15573425418110E+00
 cg2d: Sum(rhs),rhsMax =  -1.05894500279646E-07  9.16007476506756E+00
 cg2d: Sum(rhs),rhsMax =  -7.99316168809128E-12  6.37100336028096E-02
 cg2d: Sum(rhs),rhsMax =  -4.15414817211968E-07  9.12389787817237E+00
 cg2d: Sum(rhs),rhsMax =  -4.15200290149187E-07  9.12860323343309E+00
 cg2d: Sum(rhs),rhsMax =  -4.14988605257349E-07  9.13325896433659E+00
 cg2d: Sum(rhs),rhsMax =  -4.14779506741070E-07  9.13786216764694E+00
 cg2d: Sum(rhs),rhsMax =  -4.14572539852998E-07  9.14241110683918E+00
 cg2d: Sum(rhs),rhsMax =  -4.14368692247535E-07  9.14690531682561E+00
 cg2d: Sum(rhs),rhsMax =  -4.14167558915324E-07  9.15134565147359E+00
 cg2d: Sum(rhs),rhsMax =  -1.35977049353642E-06  9.15573398235715E+00
 cg2d: Sum(rhs),rhsMax =  -8.61888338477002E-12  6.05180263371249E-02
 cg2d: Sum(rhs),rhsMax =  -4.15414817211968E-07  9.12389787817237E+00
 cg2d: Sum(rhs),rhsMax =  -4.15200290149187E-07  9.12860323343309E+00
 cg2d: Sum(rhs),rhsMax =  -4.14988605257349E-07  9.13325896433659E+00
 cg2d: Sum(rhs),rhsMax =  -4.14779506741070E-07  9.13786216764694E+00
 cg2d: Sum(rhs),rhsMax =  -4.14572539852998E-07  9.14241110683918E+00
 cg2d: Sum(rhs),rhsMax =  -4.14368692247535E-07  9.14690531682561E+00
 cg2d: Sum(rhs),rhsMax =  -1.12219976955430E-06  9.15134572097672E+00
 cg2d: Sum(rhs),rhsMax =  -8.77919958952589E-12  5.96003084702040E-02
 cg2d: Sum(rhs),rhsMax =  -4.15414817211968E-07  9.12389787817237E+00
 cg2d: Sum(rhs),rhsMax =  -4.15200290149187E-07  9.12860323343309E+00
 cg2d: Sum(rhs),rhsMax =  -4.14988605257349E-07  9.13325896433659E+00
 cg2d: Sum(rhs),rhsMax =  -4.14779506741070E-07  9.13786216764694E+00
 cg2d: Sum(rhs),rhsMax =  -4.14572539852998E-07  9.14241110683918E+00
 cg2d: Sum(rhs),rhsMax =   6.82351611658305E-07  9.14690495075821E+00
 cg2d: Sum(rhs),rhsMax =  -8.82272033209119E-12  5.96862270835692E-02
 cg2d: Sum(rhs),rhsMax =  -4.15414817211968E-07  9.12389787817237E+00
 cg2d: Sum(rhs),rhsMax =  -4.15200290149187E-07  9.12860323343309E+00
 cg2d: Sum(rhs),rhsMax =  -4.14988605257349E-07  9.13325896433659E+00
 cg2d: Sum(rhs),rhsMax =  -4.14779506741070E-07  9.13786216764694E+00
 cg2d: Sum(rhs),rhsMax =  -1.42717082951549E-06  9.14241120527199E+00
 cg2d: Sum(rhs),rhsMax =  -8.89377460566720E-12  6.01275837044845E-02
 cg2d: Sum(rhs),rhsMax =  -4.15414817211968E-07  9.12389787817237E+00
 cg2d: Sum(rhs),rhsMax =  -4.15200290149187E-07  9.12860323343309E+00
 cg2d: Sum(rhs),rhsMax =  -4.14988605257349E-07  9.13325896433659E+00
 cg2d: Sum(rhs),rhsMax =   1.53179072981402E-07  9.13786248853322E+00
 cg2d: Sum(rhs),rhsMax =  -8.41371416981929E-12  6.37854527633473E-02
 cg2d: Sum(rhs),rhsMax =  -4.15414817211968E-07  9.12389787817237E+00
 cg2d: Sum(rhs),rhsMax =  -4.15200290149187E-07  9.12860323343309E+00
 cg2d: Sum(rhs),rhsMax =  -4.42281461232596E-07  9.13325919055580E+00
 cg2d: Sum(rhs),rhsMax =  -8.45012948502699E-12  6.45174851921492E-02
 cg2d: Sum(rhs),rhsMax =  -4.15414817211968E-07  9.12389787817237E+00
 cg2d: Sum(rhs),rhsMax =   5.96297695665271E-08  9.12860334329567E+00
 cg2d: Sum(rhs),rhsMax =  -8.61843929556017E-12  6.43501821466540E-02
 cg2d: Sum(rhs),rhsMax =  -4.15414746157694E-07  9.12389787823530E+00
 cg2d: Sum(rhs),rhsMax =  -8.66906546548307E-12  6.46889252811796E-02
 EXTERNAL_FIELDS_LOAD, it=   3600000 : Reading new data, i0,i1=   12    1 (prev=   12    2 )
 DIC_FIELDS_LOAD, it=   3600000 : Reading new data, i0,i1=   12    1 (prev=   12    0 )
 cg2d: Sum(rhs),rhsMax =   1.69318610687696E-07  8.73439699737069E+00
 cg2d: Sum(rhs),rhsMax =   1.69217777568065E-07  8.73957985685053E+00
 cg2d: Sum(rhs),rhsMax =   1.69116930237578E-07  8.74478996407667E+00
 cg2d: Sum(rhs),rhsMax =   1.69015713424869E-07  8.75002525197054E+00
 cg2d: Sum(rhs),rhsMax =   1.68913977915963E-07  8.75528319149979E+00
 cg2d: Sum(rhs),rhsMax =   1.68812391621032E-07  8.76056091159563E+00
 cg2d: Sum(rhs),rhsMax =   1.68710130310501E-07  8.76585531016545E+00
 cg2d: Sum(rhs),rhsMax =   1.68607783734842E-07  8.77116317961867E+00
 cg2d: Sum(rhs),rhsMax =   1.68505465580893E-07  8.77648131488675E+00
 cg2d: Sum(rhs),rhsMax =   1.68403296640918E-07  8.78180660701903E+00
 cg2d: Sum(rhs),rhsMax =   1.68301063752097E-07  8.78713610702002E+00
 cg2d: Sum(rhs),rhsMax =   1.68199015604387E-07  8.79246706727320E+00
 cg2d: Sum(rhs),rhsMax =   1.68096867980694E-07  8.79779694946195E+00
 cg2d: Sum(rhs),rhsMax =   1.67995075628369E-07  8.80312339652564E+00
 cg2d: Sum(rhs),rhsMax =   1.67893297486899E-07  8.80844419596376E+00
 cg2d: Sum(rhs),rhsMax =   1.67792002514489E-07  8.81375727000352E+00
 cg2d: Sum(rhs),rhsMax =   1.67690991759173E-07  8.81906074076855E+00
 cg2d: Sum(rhs),rhsMax =   1.67590364696935E-07  8.82435302858595E+00
 cg2d: Sum(rhs),rhsMax =   1.67489801583542E-07  8.82963296688162E+00
 cg2d: Sum(rhs),rhsMax =   1.67389771377202E-07  8.83489991268453E+00
 cg2d: Sum(rhs),rhsMax =   1.67290018282529E-07  8.84015381998810E+00
 cg2d: Sum(rhs),rhsMax =   1.67191025468583E-07  8.84539524558423E+00
 cg2d: Sum(rhs),rhsMax =   1.67091911862371E-07  8.85062527386172E+00
 cg2d: Sum(rhs),rhsMax =   1.66993110894964E-07  8.85584539161906E+00
 cg2d: Sum(rhs),rhsMax =   1.66895297581959E-07  8.86105731971219E+00
 cg2d: Sum(rhs),rhsMax =   1.66797214262715E-07  8.86626284368505E+00
 cg2d: Sum(rhs),rhsMax =   1.66699088310907E-07  8.87146368108963E+00
 cg2d: Sum(rhs),rhsMax =   1.66601175521919E-07  8.87666140941337E+00
 cg2d: Sum(rhs),rhsMax =   1.66503703269427E-07  8.88185744320308E+00
 cg2d: Sum(rhs),rhsMax =   1.66406401547192E-07  8.88705304968201E+00
 EXTERNAL_FIELDS_LOAD, it=   3600030 : Reading new data, i0,i1=    1    2 (prev=   12    1 )
 DIC_FIELDS_LOAD, it=   3600030 : Reading new data, i0,i1=    1    2 (prev=   12    1 )
 cg2d: Sum(rhs),rhsMax =   1.66308751659017E-07  8.89224939629417E+00
 cg2d: Sum(rhs),rhsMax =   1.66211989949261E-07  8.89742905273518E+00
 cg2d: Sum(rhs),rhsMax =   1.66115810884548E-07  8.90258194312370E+00
 cg2d: Sum(rhs),rhsMax =   1.66020008407486E-07  8.90769862985287E+00
 cg2d: Sum(rhs),rhsMax =   1.65925222006535E-07  8.91277064894441E+00
 cg2d: Sum(rhs),rhsMax =   1.65832325649262E-07  8.91779073567431E+00
 cg2d: Sum(rhs),rhsMax =   1.65739969304468E-07  8.92275296238945E+00
 cg2d: Sum(rhs),rhsMax =   1.65648664562923E-07  8.92765282308104E+00
 cg2d: Sum(rhs),rhsMax =   1.65559029596807E-07  8.93248727153984E+00
 cg2d: Sum(rhs),rhsMax =   1.65470908086718E-07  8.93725470683360E+00
 cg2d: Sum(rhs),rhsMax =   1.65383411854236E-07  8.94195490169141E+00
 cg2d: Sum(rhs),rhsMax =   1.65297855403423E-07  8.94658889014494E+00
 cg2d: Sum(rhs),rhsMax =   1.65213478453552E-07  8.95115882656284E+00
 cg2d: Sum(rhs),rhsMax =   1.65130131790647E-07  8.95566783046152E+00
 cg2d: Sum(rhs),rhsMax =   1.65047609357316E-07  8.96011984139981E+00
 cg2d: Sum(rhs),rhsMax =   1.64966841964542E-07  8.96451949805779E+00
 cg2d: Sum(rhs),rhsMax =   1.64886614584248E-07  8.96887204401274E+00
 cg2d: Sum(rhs),rhsMax =   1.64807353542074E-07  8.97318325974703E+00
 cg2d: Sum(rhs),rhsMax =   1.64728760410071E-07  8.97745941334167E+00
 cg2d: Sum(rhs),rhsMax =   1.64650550971146E-07  8.98170721084718E+00
 cg2d: Sum(rhs),rhsMax =   1.64573251026923E-07  8.98593374417503E+00
 cg2d: Sum(rhs),rhsMax =   1.64495830290434E-07  8.99014648706113E+00
 cg2d: Sum(rhs),rhsMax =   1.64419148518391E-07  8.99435313191228E+00
 cg2d: Sum(rhs),rhsMax =   1.64342466746348E-07  8.99856143301709E+00
 cg2d: Sum(rhs),rhsMax =   1.64265266278107E-07  9.00277891979376E+00
 cg2d: Sum(rhs),rhsMax =   1.64188094231577E-07  9.00701226475977E+00
 cg2d: Sum(rhs),rhsMax =   1.64110602440815E-07  9.01126800872608E+00
 cg2d: Sum(rhs),rhsMax =   1.64032670113556E-07  9.01555262481054E+00
 cg2d: Sum(rhs),rhsMax =   1.63954233300956E-07  9.01987189615712E+00
 cg2d: Sum(rhs),rhsMax =   1.63875164105320E-07  9.02423093235336E+00
 cg2d: Sum(rhs),rhsMax =   1.63795320418103E-07  9.02863410711437E+00
 cg2d: Sum(rhs),rhsMax =   1.63714346967936E-07  9.03308492807320E+00
 cg2d: Sum(rhs),rhsMax =   1.63633295358068E-07  9.03758589550099E+00
 cg2d: Sum(rhs),rhsMax =   1.63551085563540E-07  9.04213843256992E+00
 cg2d: Sum(rhs),rhsMax =   1.63468094172003E-07  9.04674278808053E+00
 cg2d: Sum(rhs),rhsMax =   1.63383937490380E-07  9.05139800068177E+00
 cg2d: Sum(rhs),rhsMax =   1.63299503697090E-07  9.05610191103194E+00
 cg2d: Sum(rhs),rhsMax =   1.63213783821448E-07  9.06085121060704E+00
 cg2d: Sum(rhs),rhsMax =   1.63127957364395E-07  9.06564152308058E+00
 cg2d: Sum(rhs),rhsMax =   1.63041192990931E-07  9.07046751690403E+00
 cg2d: Sum(rhs),rhsMax =   2.00013388962361E-07  9.07532298432848E+00
 cg2d: Sum(rhs),rhsMax =   1.99906168063535E-07  9.08020123096285E+00
 cg2d: Sum(rhs),rhsMax =   1.99798670053042E-07  9.08509490561553E+00
 cg2d: Sum(rhs),rhsMax =   1.99691157831694E-07  9.08999641837808E+00
 cg2d: Sum(rhs),rhsMax =   1.99584015092569E-07  9.09489795254520E+00
 cg2d: Sum(rhs),rhsMax =   1.99477149465110E-07  9.09979193041497E+00
 cg2d: Sum(rhs),rhsMax =   1.99370475684191E-07  9.10467074245054E+00
 cg2d: Sum(rhs),rhsMax =   1.99264519551434E-07  9.10952718416011E+00
 cg2d: Sum(rhs),rhsMax =   1.99159536862226E-07  9.11435449935514E+00
 cg2d: Sum(rhs),rhsMax =   1.99054909444385E-07  9.11914647730273E+00
 cg2d: Sum(rhs),rhsMax =   2.00013388962361E-07  9.07532298432848E+00
 cg2d: Sum(rhs),rhsMax =   1.99906168063535E-07  9.08020123096285E+00
 cg2d: Sum(rhs),rhsMax =   1.99798670053042E-07  9.08509490561553E+00
 cg2d: Sum(rhs),rhsMax =   1.99691157831694E-07  9.08999641837808E+00
 cg2d: Sum(rhs),rhsMax =   1.99584015092569E-07  9.09489795254520E+00
 cg2d: Sum(rhs),rhsMax =   1.99477149465110E-07  9.09979193041497E+00
 cg2d: Sum(rhs),rhsMax =   1.99370475684191E-07  9.10467074245054E+00
 cg2d: Sum(rhs),rhsMax =   1.99264519551434E-07  9.10952718416011E+00
 cg2d: Sum(rhs),rhsMax =   1.99159536862226E-07  9.11435449935514E+00
 cg2d: Sum(rhs),rhsMax =   1.63270186703812E-07  9.11914660117454E+00
 cg2d: Sum(rhs),rhsMax =  -8.98570107210617E-12  6.30835928868752E-02
 cg2d: Sum(rhs),rhsMax =   2.00013388962361E-07  9.07532298432848E+00
 cg2d: Sum(rhs),rhsMax =   1.99906168063535E-07  9.08020123096285E+00
 cg2d: Sum(rhs),rhsMax =   1.99798670053042E-07  9.08509490561553E+00
 cg2d: Sum(rhs),rhsMax =   1.99691157831694E-07  9.08999641837808E+00
 cg2d: Sum(rhs),rhsMax =   1.99584015092569E-07  9.09489795254520E+00
 cg2d: Sum(rhs),rhsMax =   1.99477149465110E-07  9.09979193041497E+00
 cg2d: Sum(rhs),rhsMax =   1.99370475684191E-07  9.10467074245054E+00
 cg2d: Sum(rhs),rhsMax =   1.99264519551434E-07  9.10952718416011E+00
 cg2d: Sum(rhs),rhsMax =   9.56265466811601E-09  9.11435420677592E+00
 cg2d: Sum(rhs),rhsMax =  -9.17976805681064E-12  6.19732227241707E-02
 cg2d: Sum(rhs),rhsMax =   2.00013388962361E-07  9.07532298432848E+00
 cg2d: Sum(rhs),rhsMax =   1.99906168063535E-07  9.08020123096285E+00
 cg2d: Sum(rhs),rhsMax =   1.99798670053042E-07  9.08509490561553E+00
 cg2d: Sum(rhs),rhsMax =   1.99691157831694E-07  9.08999641837808E+00
 cg2d: Sum(rhs),rhsMax =   1.99584015092569E-07  9.09489795254520E+00
 cg2d: Sum(rhs),rhsMax =   1.99477149465110E-07  9.09979193041497E+00
 cg2d: Sum(rhs),rhsMax =   1.99370475684191E-07  9.10467074245054E+00
 cg2d: Sum(rhs),rhsMax =  -2.09650742988288E-07  9.10952703705505E+00
 cg2d: Sum(rhs),rhsMax =  -9.49373912817464E-12  6.07944208155597E-02
 cg2d: Sum(rhs),rhsMax =   2.00013388962361E-07  9.07532298432848E+00
 cg2d: Sum(rhs),rhsMax =   1.99906168063535E-07  9.08020123096285E+00
 cg2d: Sum(rhs),rhsMax =   1.99798670053042E-07  9.08509490561553E+00
 cg2d: Sum(rhs),rhsMax =   1.99691157831694E-07  9.08999641837808E+00
 cg2d: Sum(rhs),rhsMax =   1.99584015092569E-07  9.09489795254520E+00
 cg2d: Sum(rhs),rhsMax =   1.99477149465110E-07  9.09979193041497E+00
 cg2d: Sum(rhs),rhsMax =   1.64993330997731E-07  9.10467076266509E+00
 cg2d: Sum(rhs),rhsMax =  -9.87609993785554E-12  5.92467853374333E-02
 cg2d: Sum(rhs),rhsMax =   2.00013388962361E-07  9.07532298432848E+00
 cg2d: Sum(rhs),rhsMax =   1.99906168063535E-07  9.08020123096285E+00
 cg2d: Sum(rhs),rhsMax =   1.99798670053042E-07  9.08509490561553E+00
 cg2d: Sum(rhs),rhsMax =   1.99691157831694E-07  9.08999641837808E+00
 cg2d: Sum(rhs),rhsMax =   1.99584015092569E-07  9.09489795254520E+00
 cg2d: Sum(rhs),rhsMax =   2.40560780184751E-07  9.09979192565626E+00
 cg2d: Sum(rhs),rhsMax =  -1.02149400049711E-11  5.79048486744692E-02
 cg2d: Sum(rhs),rhsMax =   2.00013388962361E-07  9.07532298432848E+00
 cg2d: Sum(rhs),rhsMax =   1.99906168063535E-07  9.08020123096285E+00
 cg2d: Sum(rhs),rhsMax =   1.99798670053042E-07  9.08509490561553E+00
 cg2d: Sum(rhs),rhsMax =   1.99691157831694E-07  9.08999641837808E+00
 cg2d: Sum(rhs),rhsMax =  -5.67113694671662E-07  9.09489790497875E+00
 cg2d: Sum(rhs),rhsMax =  -1.01212371816928E-11  5.84327490685077E-02
 cg2d: Sum(rhs),rhsMax =   2.00013388962361E-07  9.07532298432848E+00
 cg2d: Sum(rhs),rhsMax =   1.99906168063535E-07  9.08020123096285E+00
 cg2d: Sum(rhs),rhsMax =   1.99798670053042E-07  9.08509490561553E+00
 cg2d: Sum(rhs),rhsMax =  -9.68383204735801E-08  9.08999648583961E+00
 cg2d: Sum(rhs),rhsMax =  -1.00861541341146E-11  5.94275982588791E-02
 cg2d: Sum(rhs),rhsMax =   2.00013388962361E-07  9.07532298432848E+00
 cg2d: Sum(rhs),rhsMax =   1.99906168063535E-07  9.08020123096285E+00
 cg2d: Sum(rhs),rhsMax =  -9.80742214551356E-07  9.08509522133980E+00
 cg2d: Sum(rhs),rhsMax =  -1.00657260304615E-11  6.01644526540808E-02
 cg2d: Sum(rhs),rhsMax =   2.00013388962361E-07  9.07532298432848E+00
 cg2d: Sum(rhs),rhsMax =   1.77487753916239E-06  9.08020136053150E+00
 cg2d: Sum(rhs),rhsMax =  -1.03357322700504E-11  5.88660721570764E-02
 cg2d: Sum(rhs),rhsMax =   2.00013310802660E-07  9.07532298429555E+00
 cg2d: Sum(rhs),rhsMax =  -1.05440101094700E-11  5.86292622413714E-02
 EXTERNAL_FIELDS_LOAD, it=   3600000 : Reading new data, i0,i1=   12    1 (prev=   12    2 )
 DIC_FIELDS_LOAD, it=   3600000 : Reading new data, i0,i1=   12    1 (prev=   12    0 )
 cg2d: Sum(rhs),rhsMax =   1.69318610687696E-07  8.73439699737069E+00
 cg2d: Sum(rhs),rhsMax =   1.69217777568065E-07  8.73957985685053E+00
 cg2d: Sum(rhs),rhsMax =   1.69116930237578E-07  8.74478996407667E+00
 cg2d: Sum(rhs),rhsMax =   1.69015713424869E-07  8.75002525197054E+00
 cg2d: Sum(rhs),rhsMax =   1.68913977915963E-07  8.75528319149979E+00
 cg2d: Sum(rhs),rhsMax =   1.68812391621032E-07  8.76056091159563E+00
 cg2d: Sum(rhs),rhsMax =   1.68710130310501E-07  8.76585531016545E+00
 cg2d: Sum(rhs),rhsMax =   1.68607783734842E-07  8.77116317961867E+00
 cg2d: Sum(rhs),rhsMax =   1.68505465580893E-07  8.77648131488675E+00
 cg2d: Sum(rhs),rhsMax =   1.68403296640918E-07  8.78180660701903E+00
 cg2d: Sum(rhs),rhsMax =   1.68301063752097E-07  8.78713610702002E+00
 cg2d: Sum(rhs),rhsMax =   1.68199015604387E-07  8.79246706727320E+00
 cg2d: Sum(rhs),rhsMax =   1.68096867980694E-07  8.79779694946195E+00
 cg2d: Sum(rhs),rhsMax =   1.67995075628369E-07  8.80312339652564E+00
 cg2d: Sum(rhs),rhsMax =   1.67893297486899E-07  8.80844419596376E+00
 cg2d: Sum(rhs),rhsMax =   1.67792002514489E-07  8.81375727000352E+00
 cg2d: Sum(rhs),rhsMax =   1.67690991759173E-07  8.81906074076855E+00
 cg2d: Sum(rhs),rhsMax =   1.67590364696935E-07  8.82435302858595E+00
 cg2d: Sum(rhs),rhsMax =   1.67489801583542E-07  8.82963296688162E+00
 cg2d: Sum(rhs),rhsMax =   1.67389771377202E-07  8.83489991268453E+00
 cg2d: Sum(rhs),rhsMax =   1.67290018282529E-07  8.84015381998810E+00
 cg2d: Sum(rhs),rhsMax =   1.67191025468583E-07  8.84539524558423E+00
 cg2d: Sum(rhs),rhsMax =   1.67091911862371E-07  8.85062527386172E+00
 cg2d: Sum(rhs),rhsMax =   1.66993110894964E-07  8.85584539161906E+00
 cg2d: Sum(rhs),rhsMax =   1.66895297581959E-07  8.86105731971219E+00
 cg2d: Sum(rhs),rhsMax =   1.66797214262715E-07  8.86626284368505E+00
 cg2d: Sum(rhs),rhsMax =   1.66699088310907E-07  8.87146368108963E+00
 cg2d: Sum(rhs),rhsMax =   1.66601175521919E-07  8.87666140941337E+00
 cg2d: Sum(rhs),rhsMax =   1.66503703269427E-07  8.88185744320308E+00
 cg2d: Sum(rhs),rhsMax =   1.66406401547192E-07  8.88705304968201E+00
 EXTERNAL_FIELDS_LOAD, it=   3600030 : Reading new data, i0,i1=    1    2 (prev=   12    1 )
 DIC_FIELDS_LOAD, it=   3600030 : Reading new data, i0,i1=    1    2 (prev=   12    1 )
 cg2d: Sum(rhs),rhsMax =   1.66308751659017E-07  8.89224939629417E+00
 cg2d: Sum(rhs),rhsMax =   1.66211989949261E-07  8.89742905273518E+00
 cg2d: Sum(rhs),rhsMax =   1.66115810884548E-07  8.90258194312370E+00
 cg2d: Sum(rhs),rhsMax =   1.66020008407486E-07  8.90769862985287E+00
 cg2d: Sum(rhs),rhsMax =   1.65925222006535E-07  8.91277064894441E+00
 cg2d: Sum(rhs),rhsMax =   1.65832325649262E-07  8.91779073567431E+00
 cg2d: Sum(rhs),rhsMax =   1.65739969304468E-07  8.92275296238945E+00
 cg2d: Sum(rhs),rhsMax =   1.65648664562923E-07  8.92765282308104E+00
 cg2d: Sum(rhs),rhsMax =   1.65559029596807E-07  8.93248727153984E+00
 cg2d: Sum(rhs),rhsMax =   1.65470908086718E-07  8.93725470683360E+00
 cg2d: Sum(rhs),rhsMax =   1.65383411854236E-07  8.94195490169141E+00
 cg2d: Sum(rhs),rhsMax =   1.65297855403423E-07  8.94658889014494E+00
 cg2d: Sum(rhs),rhsMax =   1.65213478453552E-07  8.95115882656284E+00
 cg2d: Sum(rhs),rhsMax =   1.65130131790647E-07  8.95566783046152E+00
 cg2d: Sum(rhs),rhsMax =   1.65047609357316E-07  8.96011984139981E+00
 cg2d: Sum(rhs),rhsMax =   1.64966841964542E-07  8.96451949805779E+00
 cg2d: Sum(rhs),rhsMax =   1.64886614584248E-07  8.96887204401274E+00
 cg2d: Sum(rhs),rhsMax =   1.64807353542074E-07  8.97318325974703E+00
 cg2d: Sum(rhs),rhsMax =   1.64728760410071E-07  8.97745941334167E+00
 cg2d: Sum(rhs),rhsMax =   1.64650550971146E-07  8.98170721084718E+00
 cg2d: Sum(rhs),rhsMax =   1.64573251026923E-07  8.98593374417503E+00
 cg2d: Sum(rhs),rhsMax =   1.64495830290434E-07  8.99014648706113E+00
 cg2d: Sum(rhs),rhsMax =   1.64419148518391E-07  8.99435313191228E+00
 cg2d: Sum(rhs),rhsMax =   1.64342466746348E-07  8.99856143301709E+00
 cg2d: Sum(rhs),rhsMax =   1.64265266278107E-07  9.00277891979376E+00
 cg2d: Sum(rhs),rhsMax =   1.64188094231577E-07  9.00701226475977E+00
 cg2d: Sum(rhs),rhsMax =   1.64110602440815E-07  9.01126800872608E+00
 cg2d: Sum(rhs),rhsMax =   1.64032670113556E-07  9.01555262481054E+00
 cg2d: Sum(rhs),rhsMax =   1.63954233300956E-07  9.01987189615712E+00
 cg2d: Sum(rhs),rhsMax =   1.63875164105320E-07  9.02423093235336E+00
 cg2d: Sum(rhs),rhsMax =   8.62953868363547E-07  9.02863447257574E+00
 cg2d: Sum(rhs),rhsMax =   8.62528573009058E-07  9.03308527017141E+00
 cg2d: Sum(rhs),rhsMax =   8.62099007292727E-07  9.03758618930770E+00
 cg2d: Sum(rhs),rhsMax =   8.61665128581990E-07  9.04213865448745E+00
 cg2d: Sum(rhs),rhsMax =   8.61226617132616E-07  9.04674292439421E+00
 cg2d: Sum(rhs),rhsMax =   8.60784311385032E-07  9.05139805074668E+00
 cg2d: Sum(rhs),rhsMax =   8.60337010522016E-07  9.05610188489545E+00
 cg2d: Sum(rhs),rhsMax =   8.59886711168656E-07  9.06085112379006E+00
 cg2d: Sum(rhs),rhsMax =   8.59432233824009E-07  9.06564139153443E+00
 cg2d: Sum(rhs),rhsMax =   8.58975191420086E-07  9.07046735399044E+00
 cg2d: Sum(rhs),rhsMax =   8.62953868363547E-07  9.02863447257574E+00
 cg2d: Sum(rhs),rhsMax =   8.62528573009058E-07  9.03308527017141E+00
 cg2d: Sum(rhs),rhsMax =   8.62099007292727E-07  9.03758618930770E+00
 cg2d: Sum(rhs),rhsMax =   8.61665128581990E-07  9.04213865448745E+00
 cg2d: Sum(rhs),rhsMax =   8.61226617132616E-07  9.04674292439421E+00
 cg2d: Sum(rhs),rhsMax =   8.60784311385032E-07  9.05139805074668E+00
 cg2d: Sum(rhs),rhsMax =   8.60337010522016E-07  9.05610188489545E+00
 cg2d: Sum(rhs),rhsMax =   8.59886711168656E-07  9.06085112379006E+00
 cg2d: Sum(rhs),rhsMax =   8.59432233824009E-07  9.06564139153443E+00
 cg2d: Sum(rhs),rhsMax =   2.26007053072408E-06  9.07046754214365E+00
 cg2d: Sum(rhs),rhsMax =  -1.03383968053095E-11  6.01137274083619E-02
 cg2d: Sum(rhs),rhsMax =   8.62953868363547E-07  9.02863447257574E+00
 cg2d: Sum(rhs),rhsMax =   8.62528573009058E-07  9.03308527017141E+00
 cg2d: Sum(rhs),rhsMax =   8.62099007292727E-07  9.03758618930770E+00
 cg2d: Sum(rhs),rhsMax =   8.61665128581990E-07  9.04213865448745E+00
 cg2d: Sum(rhs),rhsMax =   8.61226617132616E-07  9.04674292439421E+00
 cg2d: Sum(rhs),rhsMax =   8.60784311385032E-07  9.05139805074668E+00
 cg2d: Sum(rhs),rhsMax =   8.60337010522016E-07  9.05610188489545E+00
 cg2d: Sum(rhs),rhsMax =   8.59886711168656E-07  9.06085112379006E+00
 cg2d: Sum(rhs),rhsMax =   1.26412802359255E-06  9.06564120961979E+00
 cg2d: Sum(rhs),rhsMax =  -9.69846425391552E-12  6.49493422942824E-02
 cg2d: Sum(rhs),rhsMax =   8.62953868363547E-07  9.02863447257574E+00
 cg2d: Sum(rhs),rhsMax =   8.62528573009058E-07  9.03308527017141E+00
 cg2d: Sum(rhs),rhsMax =   8.62099007292727E-07  9.03758618930770E+00
 cg2d: Sum(rhs),rhsMax =   8.61665128581990E-07  9.04213865448745E+00
 cg2d: Sum(rhs),rhsMax =   8.61226617132616E-07  9.04674292439421E+00
 cg2d: Sum(rhs),rhsMax =   8.60784311385032E-07  9.05139805074668E+00
 cg2d: Sum(rhs),rhsMax =   8.60337010522016E-07  9.05610188489545E+00
 cg2d: Sum(rhs),rhsMax =  -6.61990142702962E-08  9.06085098975463E+00
 cg2d: Sum(rhs),rhsMax =  -9.67315116895406E-12  6.52528245780648E-02
 cg2d: Sum(rhs),rhsMax =   8.62953868363547E-07  9.02863447257574E+00
 cg2d: Sum(rhs),rhsMax =   8.62528573009058E-07  9.03308527017141E+00
 cg2d: Sum(rhs),rhsMax =   8.62099007292727E-07  9.03758618930770E+00
 cg2d: Sum(rhs),rhsMax =   8.61665128581990E-07  9.04213865448745E+00
 cg2d: Sum(rhs),rhsMax =   8.61226617132616E-07  9.04674292439421E+00
 cg2d: Sum(rhs),rhsMax =   8.60784311385032E-07  9.05139805074668E+00
 cg2d: Sum(rhs),rhsMax =  -1.27856552012418E-08  9.05610171284861E+00
 cg2d: Sum(rhs),rhsMax =  -1.01345598579883E-11  6.31231595668059E-02
 cg2d: Sum(rhs),rhsMax =   8.62953868363547E-07  9.02863447257574E+00
 cg2d: Sum(rhs),rhsMax =   8.62528573009058E-07  9.03308527017141E+00
 cg2d: Sum(rhs),rhsMax =   8.62099007292727E-07  9.03758618930770E+00
 cg2d: Sum(rhs),rhsMax =   8.61665128581990E-07  9.04213865448745E+00
 cg2d: Sum(rhs),rhsMax =   8.61226617132616E-07  9.04674292439421E+00
 cg2d: Sum(rhs),rhsMax =   2.05721235602141E-07  9.05139830309215E+00
 cg2d: Sum(rhs),rhsMax =  -1.06123998477869E-11  6.07082432168368E-02
 cg2d: Sum(rhs),rhsMax =   8.62953868363547E-07  9.02863447257574E+00
 cg2d: Sum(rhs),rhsMax =   8.62528573009058E-07  9.03308527017141E+00
 cg2d: Sum(rhs),rhsMax =   8.62099007292727E-07  9.03758618930770E+00
 cg2d: Sum(rhs),rhsMax =   8.61665128581990E-07  9.04213865448745E+00
 cg2d: Sum(rhs),rhsMax =  -7.74030795014369E-08  9.04674267440941E+00
 cg2d: Sum(rhs),rhsMax =  -1.08877351578940E-11  5.94590166139631E-02
 cg2d: Sum(rhs),rhsMax =   8.62953868363547E-07  9.02863447257574E+00
 cg2d: Sum(rhs),rhsMax =   8.62528573009058E-07  9.03308527017141E+00
 cg2d: Sum(rhs),rhsMax =   8.62099007292727E-07  9.03758618930770E+00
 cg2d: Sum(rhs),rhsMax =   9.13919457445900E-07  9.04213828184758E+00
 cg2d: Sum(rhs),rhsMax =  -1.08917319607826E-11  6.03521292737172E-02
 cg2d: Sum(rhs),rhsMax =   8.62953868363547E-07  9.02863447257574E+00
 cg2d: Sum(rhs),rhsMax =   8.62528573009058E-07  9.03308527017141E+00
 cg2d: Sum(rhs),rhsMax =   9.16482918000838E-07  9.03758627733145E+00
 cg2d: Sum(rhs),rhsMax =  -1.07713837849133E-11  6.12688150902459E-02
 cg2d: Sum(rhs),rhsMax =   8.62953868363547E-07  9.02863447257574E+00
 cg2d: Sum(rhs),rhsMax =   1.70954166378579E-08  9.03308544690264E+00
 cg2d: Sum(rhs),rhsMax =  -1.05413455742109E-11  6.34921082352374E-02
 cg2d: Sum(rhs),rhsMax =   8.62953633884445E-07  9.02863447317784E+00
 cg2d: Sum(rhs),rhsMax =  -1.06314956838105E-11  6.33119596774442E-02
 EXTERNAL_FIELDS_LOAD, it=   3600000 : Reading new data, i0,i1=   12    1 (prev=   12    2 )
 DIC_FIELDS_LOAD, it=   3600000 : Reading new data, i0,i1=   12    1 (prev=   12    0 )
 cg2d: Sum(rhs),rhsMax =   1.69318610687696E-07  8.73439699737069E+00
 cg2d: Sum(rhs),rhsMax =   1.69217777568065E-07  8.73957985685053E+00
 cg2d: Sum(rhs),rhsMax =   1.69116930237578E-07  8.74478996407667E+00
 cg2d: Sum(rhs),rhsMax =   1.69015713424869E-07  8.75002525197054E+00
 cg2d: Sum(rhs),rhsMax =   1.68913977915963E-07  8.75528319149979E+00
 cg2d: Sum(rhs),rhsMax =   1.68812391621032E-07  8.76056091159563E+00
 cg2d: Sum(rhs),rhsMax =   1.68710130310501E-07  8.76585531016545E+00
 cg2d: Sum(rhs),rhsMax =   1.68607783734842E-07  8.77116317961867E+00
 cg2d: Sum(rhs),rhsMax =   1.68505465580893E-07  8.77648131488675E+00
 cg2d: Sum(rhs),rhsMax =   1.68403296640918E-07  8.78180660701903E+00
 cg2d: Sum(rhs),rhsMax =   1.68301063752097E-07  8.78713610702002E+00
 cg2d: Sum(rhs),rhsMax =   1.68199015604387E-07  8.79246706727320E+00
 cg2d: Sum(rhs),rhsMax =   1.68096867980694E-07  8.79779694946195E+00
 cg2d: Sum(rhs),rhsMax =   1.67995075628369E-07  8.80312339652564E+00
 cg2d: Sum(rhs),rhsMax =   1.67893297486899E-07  8.80844419596376E+00
 cg2d: Sum(rhs),rhsMax =   1.67792002514489E-07  8.81375727000352E+00
 cg2d: Sum(rhs),rhsMax =   1.67690991759173E-07  8.81906074076855E+00
 cg2d: Sum(rhs),rhsMax =   1.67590364696935E-07  8.82435302858595E+00
 cg2d: Sum(rhs),rhsMax =   1.67489801583542E-07  8.82963296688162E+00
 cg2d: Sum(rhs),rhsMax =   1.67389771377202E-07  8.83489991268453E+00
 cg2d: Sum(rhs),rhsMax =   1.67290018282529E-07  8.84015381998810E+00
 cg2d: Sum(rhs),rhsMax =   1.67191025468583E-07  8.84539524558423E+00
 cg2d: Sum(rhs),rhsMax =   1.67091911862371E-07  8.85062527386172E+00
 cg2d: Sum(rhs),rhsMax =   1.66993110894964E-07  8.85584539161906E+00
 cg2d: Sum(rhs),rhsMax =   1.66895297581959E-07  8.86105731971219E+00
 cg2d: Sum(rhs),rhsMax =   1.66797214262715E-07  8.86626284368505E+00
 cg2d: Sum(rhs),rhsMax =   1.66699088310907E-07  8.87146368108963E+00
 cg2d: Sum(rhs),rhsMax =   1.66601175521919E-07  8.87666140941337E+00
 cg2d: Sum(rhs),rhsMax =   1.66503703269427E-07  8.88185744320308E+00
 cg2d: Sum(rhs),rhsMax =   1.66406401547192E-07  8.88705304968201E+00
 EXTERNAL_FIELDS_LOAD, it=   3600030 : Reading new data, i0,i1=    1    2 (prev=   12    1 )
 DIC_FIELDS_LOAD, it=   3600030 : Reading new data, i0,i1=    1    2 (prev=   12    1 )
 cg2d: Sum(rhs),rhsMax =   1.66308751659017E-07  8.89224939629417E+00
 cg2d: Sum(rhs),rhsMax =   1.66211989949261E-07  8.89742905273518E+00
 cg2d: Sum(rhs),rhsMax =   1.66115810884548E-07  8.90258194312370E+00
 cg2d: Sum(rhs),rhsMax =   1.66020008407486E-07  8.90769862985287E+00
 cg2d: Sum(rhs),rhsMax =   1.65925222006535E-07  8.91277064894441E+00
 cg2d: Sum(rhs),rhsMax =   1.65832325649262E-07  8.91779073567431E+00
 cg2d: Sum(rhs),rhsMax =   1.65739969304468E-07  8.92275296238945E+00
 cg2d: Sum(rhs),rhsMax =   1.65648664562923E-07  8.92765282308104E+00
 cg2d: Sum(rhs),rhsMax =   1.65559029596807E-07  8.93248727153984E+00
 cg2d: Sum(rhs),rhsMax =   1.65470908086718E-07  8.93725470683360E+00
 cg2d: Sum(rhs),rhsMax =   1.65383411854236E-07  8.94195490169141E+00
 cg2d: Sum(rhs),rhsMax =   1.65297855403423E-07  8.94658889014494E+00
 cg2d: Sum(rhs),rhsMax =   1.65213478453552E-07  8.95115882656284E+00
 cg2d: Sum(rhs),rhsMax =   1.65130131790647E-07  8.95566783046152E+00
 cg2d: Sum(rhs),rhsMax =   1.65047609357316E-07  8.96011984139981E+00
 cg2d: Sum(rhs),rhsMax =   1.64966841964542E-07  8.96451949805779E+00
 cg2d: Sum(rhs),rhsMax =   1.64886614584248E-07  8.96887204401274E+00
 cg2d: Sum(rhs),rhsMax =   1.64807353542074E-07  8.97318325974703E+00
 cg2d: Sum(rhs),rhsMax =   1.64728760410071E-07  8.97745941334167E+00
 cg2d: Sum(rhs),rhsMax =   1.64650550971146E-07  8.98170721084718E+00
 cg2d: Sum(rhs),rhsMax =   1.87154993369631E-06  8.98593388891255E+00
 cg2d: Sum(rhs),rhsMax =   1.87067268342389E-06  8.99014660967693E+00
 cg2d: Sum(rhs),rhsMax =   1.86979781346963E-06  8.99435321454164E+00
 cg2d: Sum(rhs),rhsMax =   1.86892326325960E-06  8.99856146382182E+00
 cg2d: Sum(rhs),rhsMax =   1.86804771828974E-06  9.00277889452660E+00
 cg2d: Sum(rhs),rhsMax =   1.86716994221570E-06  9.00701218605403E+00
 cg2d: Sum(rhs),rhsMax =   1.86628822973489E-06  9.01126788401129E+00
 cg2d: Sum(rhs),rhsMax =   1.86540108160216E-06  9.01555246402768E+00
 cg2d: Sum(rhs),rhsMax =   1.86450812122985E-06  9.01987171031166E+00
 cg2d: Sum(rhs),rhsMax =   1.86360762910454E-06  9.02423073349470E+00
 cg2d: Sum(rhs),rhsMax =   1.87154993369631E-06  8.98593388891255E+00
 cg2d: Sum(rhs),rhsMax =   1.87067268342389E-06  8.99014660967693E+00
 cg2d: Sum(rhs),rhsMax =   1.86979781346963E-06  8.99435321454164E+00
 cg2d: Sum(rhs),rhsMax =   1.86892326325960E-06  8.99856146382182E+00
 cg2d: Sum(rhs),rhsMax =   1.86804771828974E-06  9.00277889452660E+00
 cg2d: Sum(rhs),rhsMax =   1.86716994221570E-06  9.00701218605403E+00
 cg2d: Sum(rhs),rhsMax =   1.86628822973489E-06  9.01126788401129E+00
 cg2d: Sum(rhs),rhsMax =   1.86540108160216E-06  9.01555246402768E+00
 cg2d: Sum(rhs),rhsMax =   1.86450812122985E-06  9.01987171031166E+00
 cg2d: Sum(rhs),rhsMax =   1.62585160978779E-06  9.02423042463665E+00
 cg2d: Sum(rhs),rhsMax =  -1.08415498800696E-11  6.27689656061214E-02
 cg2d: Sum(rhs),rhsMax =   1.87154993369631E-06  8.98593388891255E+00
 cg2d: Sum(rhs),rhsMax =   1.87067268342389E-06  8.99014660967693E+00
 cg2d: Sum(rhs),rhsMax =   1.86979781346963E-06  8.99435321454164E+00
 cg2d: Sum(rhs),rhsMax =   1.86892326325960E-06  8.99856146382182E+00
 cg2d: Sum(rhs),rhsMax =   1.86804771828974E-06  9.00277889452660E+00
 cg2d: Sum(rhs),rhsMax =   1.86716994221570E-06  9.00701218605403E+00
 cg2d: Sum(rhs),rhsMax =   1.86628822973489E-06  9.01126788401129E+00
 cg2d: Sum(rhs),rhsMax =   1.86540108160216E-06  9.01555246402768E+00
 cg2d: Sum(rhs),rhsMax =   1.84989492879595E-06  9.01987186512447E+00
 cg2d: Sum(rhs),rhsMax =  -1.09188214025835E-11  6.29290915136520E-02
 cg2d: Sum(rhs),rhsMax =   1.87154993369631E-06  8.98593388891255E+00
 cg2d: Sum(rhs),rhsMax =   1.87067268342389E-06  8.99014660967693E+00
 cg2d: Sum(rhs),rhsMax =   1.86979781346963E-06  8.99435321454164E+00
 cg2d: Sum(rhs),rhsMax =   1.86892326325960E-06  8.99856146382182E+00
 cg2d: Sum(rhs),rhsMax =   1.86804771828974E-06  9.00277889452660E+00
 cg2d: Sum(rhs),rhsMax =   1.86716994221570E-06  9.00701218605403E+00
 cg2d: Sum(rhs),rhsMax =   1.86628822973489E-06  9.01126788401129E+00
 cg2d: Sum(rhs),rhsMax =   2.12297154433827E-06  9.01555265984677E+00
 cg2d: Sum(rhs),rhsMax =  -1.08486553074272E-11  6.36655538694743E-02
 cg2d: Sum(rhs),rhsMax =   1.87154993369631E-06  8.98593388891255E+00
 cg2d: Sum(rhs),rhsMax =   1.87067268342389E-06  8.99014660967693E+00
 cg2d: Sum(rhs),rhsMax =   1.86979781346963E-06  8.99435321454164E+00
 cg2d: Sum(rhs),rhsMax =   1.86892326325960E-06  8.99856146382182E+00
 cg2d: Sum(rhs),rhsMax =   1.86804771828974E-06  9.00277889452660E+00
 cg2d: Sum(rhs),rhsMax =   1.86716994221570E-06  9.00701218605403E+00
 cg2d: Sum(rhs),rhsMax =   2.76804628640548E-06  9.01126813654610E+00
 cg2d: Sum(rhs),rhsMax =  -1.08575370916242E-11  6.41705810380092E-02
 cg2d: Sum(rhs),rhsMax =   1.87154993369631E-06  8.98593388891255E+00
 cg2d: Sum(rhs),rhsMax =   1.87067268342389E-06  8.99014660967693E+00
 cg2d: Sum(rhs),rhsMax =   1.86979781346963E-06  8.99435321454164E+00
 cg2d: Sum(rhs),rhsMax =   1.86892326325960E-06  8.99856146382182E+00
 cg2d: Sum(rhs),rhsMax =   1.86804771828974E-06  9.00277889452660E+00
 cg2d: Sum(rhs),rhsMax =   1.27347749412365E-06  9.00701199986752E+00
(PID.TID 0000.0001) // =======================================================
(PID.TID 0000.0001) // Begin AD_MONITOR dynamic field statistics
(PID.TID 0000.0001) // =======================================================
(PID.TID 0000.0001) %MON ad_time_tsnumber             =               3600056
(PID.TID 0000.0001) %MON ad_time_secondsf             =   1.5552241920000E+11
(PID.TID 0000.0001) %MON ad_dynstat_adeta_max         =   1.3160845357606E+03
(PID.TID 0000.0001) %MON ad_dynstat_adeta_min         =  -7.7482693536352E+03
(PID.TID 0000.0001) %MON ad_dynstat_adeta_mean        =  -9.0933223433056E+01
(PID.TID 0000.0001) %MON ad_dynstat_adeta_sd          =   1.4076854400962E+03
(PID.TID 0000.0001) %MON ad_dynstat_adeta_del2        =   1.3584316551472E+01
(PID.TID 0000.0001) %MON ad_dynstat_aduvel_max        =   3.7146020467734E+04
(PID.TID 0000.0001) %MON ad_dynstat_aduvel_min        =  -2.1942654038636E+04
(PID.TID 0000.0001) %MON ad_dynstat_aduvel_mean       =   1.1949138602784E+02
(PID.TID 0000.0001) %MON ad_dynstat_aduvel_sd         =   1.5952239720023E+03
(PID.TID 0000.0001) %MON ad_dynstat_aduvel_del2       =   7.9598263141332E+00
(PID.TID 0000.0001) %MON ad_dynstat_advvel_max        =   3.1963923101724E+04
(PID.TID 0000.0001) %MON ad_dynstat_advvel_min        =  -3.9112849160984E+04
(PID.TID 0000.0001) %MON ad_dynstat_advvel_mean       =  -1.0678065130629E+02
(PID.TID 0000.0001) %MON ad_dynstat_advvel_sd         =   1.8482368897980E+03
(PID.TID 0000.0001) %MON ad_dynstat_advvel_del2       =   7.2782314824605E+00
(PID.TID 0000.0001) %MON ad_dynstat_adwvel_max        =   1.5125395819751E+04
(PID.TID 0000.0001) %MON ad_dynstat_adwvel_min        =  -1.3283345324932E+05
(PID.TID 0000.0001) %MON ad_dynstat_adwvel_mean       =  -5.4455756851450E+00
(PID.TID 0000.0001) %MON ad_dynstat_adwvel_sd         =   4.5376233863878E+02
(PID.TID 0000.0001) %MON ad_dynstat_adwvel_del2       =   1.2621516636286E+01
(PID.TID 0000.0001) %MON ad_dynstat_adtheta_max       =   8.4128024070079E+03
(PID.TID 0000.0001) %MON ad_dynstat_adtheta_min       =  -1.1593070728305E+04
(PID.TID 0000.0001) %MON ad_dynstat_adtheta_mean      =   3.1383918580824E+00
(PID.TID 0000.0001) %MON ad_dynstat_adtheta_sd        =   5.6517616692229E+02
(PID.TID 0000.0001) %MON ad_dynstat_adtheta_del2      =   1.6595141434944E+00
(PID.TID 0000.0001) %MON ad_dynstat_adsalt_max        =   5.2117197181531E+04
(PID.TID 0000.0001) %MON ad_dynstat_adsalt_min        =  -4.9160354426439E+04
(PID.TID 0000.0001) %MON ad_dynstat_adsalt_mean       =  -1.6421396065059E+01
(PID.TID 0000.0001) %MON ad_dynstat_adsalt_sd         =   2.9377793135120E+03
(PID.TID 0000.0001) %MON ad_dynstat_adsalt_del2       =   8.2816165615940E+00
(PID.TID 0000.0001) %MON ad_dynstat_adsst_max         =   1.6172752359496E+01
(PID.TID 0000.0001) %MON ad_dynstat_adsst_min         =  -5.9791778321039E+00
(PID.TID 0000.0001) %MON ad_dynstat_adsst_mean        =  -7.4254712511028E-02
(PID.TID 0000.0001) %MON ad_dynstat_adsst_sd          =   2.4367619900377E+00
(PID.TID 0000.0001) %MON ad_dynstat_adsst_del2        =   2.5588354722570E-02
(PID.TID 0000.0001) %MON ad_dynstat_adsss_max         =   2.0352398665933E+01
(PID.TID 0000.0001) %MON ad_dynstat_adsss_min         =  -5.9382501050736E+01
(PID.TID 0000.0001) %MON ad_dynstat_adsss_mean        =   6.1667530837256E-01
(PID.TID 0000.0001) %MON ad_dynstat_adsss_sd          =   7.9397517914310E+00
(PID.TID 0000.0001) %MON ad_dynstat_adsss_del2        =   8.6213339449057E-02
(PID.TID 0000.0001) %MON ad_forcing_adqnet_max        =   0.0000000000000E+00
(PID.TID 0000.0001) %MON ad_forcing_adqnet_min        =   0.0000000000000E+00
(PID.TID 0000.0001) %MON ad_forcing_adqnet_mean       =   0.0000000000000E+00
(PID.TID 0000.0001) %MON ad_forcing_adqnet_sd         =   0.0000000000000E+00
(PID.TID 0000.0001) %MON ad_forcing_adqnet_del2       =   0.0000000000000E+00
(PID.TID 0000.0001) %MON ad_forcing_adqsw_max         =   2.8593344395670E-01
(PID.TID 0000.0001) %MON ad_forcing_adqsw_min         =  -9.4368349663490E-01
(PID.TID 0000.0001) %MON ad_forcing_adqsw_mean        =  -6.9382175739176E-03
(PID.TID 0000.0001) %MON ad_forcing_adqsw_sd          =   9.5721254593371E-02
(PID.TID 0000.0001) %MON ad_forcing_adqsw_del2        =   1.0231806500008E-03
(PID.TID 0000.0001) %MON ad_forcing_adempmr_max       =   0.0000000000000E+00
(PID.TID 0000.0001) %MON ad_forcing_adempmr_min       =   0.0000000000000E+00
(PID.TID 0000.0001) %MON ad_forcing_adempmr_mean      =   0.0000000000000E+00
(PID.TID 0000.0001) %MON ad_forcing_adempmr_sd        =   0.0000000000000E+00
(PID.TID 0000.0001) %MON ad_forcing_adempmr_del2      =   0.0000000000000E+00
(PID.TID 0000.0001) %MON ad_forcing_adfu_max          =   0.0000000000000E+00
(PID.TID 0000.0001) %MON ad_forcing_adfu_min          =   0.0000000000000E+00
(PID.TID 0000.0001) %MON ad_forcing_adfu_mean         =   0.0000000000000E+00
(PID.TID 0000.0001) %MON ad_forcing_adfu_sd           =   0.0000000000000E+00
(PID.TID 0000.0001) %MON ad_forcing_adfu_del2         =   0.0000000000000E+00
(PID.TID 0000.0001) %MON ad_forcing_adfv_max          =   0.0000000000000E+00
(PID.TID 0000.0001) %MON ad_forcing_adfv_min          =   0.0000000000000E+00
(PID.TID 0000.0001) %MON ad_forcing_adfv_mean         =   0.0000000000000E+00
(PID.TID 0000.0001) %MON ad_forcing_adfv_sd           =   0.0000000000000E+00
(PID.TID 0000.0001) %MON ad_forcing_adfv_del2         =   0.0000000000000E+00
(PID.TID 0000.0001) // =======================================================
(PID.TID 0000.0001) // End AD_MONITOR dynamic field statistics
(PID.TID 0000.0001) // =======================================================
(PID.TID 0000.0001) // =======================================================
(PID.TID 0000.0001) // Begin AD_MONITOR ptracer field statistics
(PID.TID 0000.0001) // =======================================================
(PID.TID 0000.0001) %MON ad_trcstat_adptracer01_max   =   0.0000000000000E+00
(PID.TID 0000.0001) %MON ad_trcstat_adptracer01_min   =   0.0000000000000E+00
(PID.TID 0000.0001) %MON ad_trcstat_adptracer01_mean  =   0.0000000000000E+00
(PID.TID 0000.0001) %MON ad_trcstat_adptracer01_sd    =   0.0000000000000E+00
(PID.TID 0000.0001) %MON ad_trcstat_adptracer01_del2  =   0.0000000000000E+00
(PID.TID 0000.0001) %MON ad_trcstat_adptracer02_max   =   0.0000000000000E+00
(PID.TID 0000.0001) %MON ad_trcstat_adptracer02_min   =   0.0000000000000E+00
(PID.TID 0000.0001) %MON ad_trcstat_adptracer02_mean  =   0.0000000000000E+00
(PID.TID 0000.0001) %MON ad_trcstat_adptracer02_sd    =   0.0000000000000E+00
(PID.TID 0000.0001) %MON ad_trcstat_adptracer02_del2  =   0.0000000000000E+00
(PID.TID 0000.0001) %MON ad_trcstat_adptracer03_max   =   7.1217068971935E-18
(PID.TID 0000.0001) %MON ad_trcstat_adptracer03_min   =  -3.6233761025474E-16
(PID.TID 0000.0001) %MON ad_trcstat_adptracer03_mean  =  -1.4464354804234E-20
(PID.TID 0000.0001) %MON ad_trcstat_adptracer03_sd    =   1.8155339326547E-18
(PID.TID 0000.0001) %MON ad_trcstat_adptracer03_del2  =   9.5292428542857E-21
(PID.TID 0000.0001) %MON ad_trcstat_adptracer04_max   =   4.4983824774779E+06
(PID.TID 0000.0001) %MON ad_trcstat_adptracer04_min   =  -4.5939180876005E+07
(PID.TID 0000.0001) %MON ad_trcstat_adptracer04_mean  =  -4.3863998656887E+05
(PID.TID 0000.0001) %MON ad_trcstat_adptracer04_sd    =   3.8607369988309E+06
(PID.TID 0000.0001) %MON ad_trcstat_adptracer04_del2  =   8.0575140419361E+03
(PID.TID 0000.0001) %MON ad_trcstat_adptracer05_max   =   1.3321742667194E+06
(PID.TID 0000.0001) %MON ad_trcstat_adptracer05_min   =  -2.1733840788295E+05
(PID.TID 0000.0001) %MON ad_trcstat_adptracer05_mean  =   1.2704955383810E+04
(PID.TID 0000.0001) %MON ad_trcstat_adptracer05_sd    =   1.1151615024213E+05
(PID.TID 0000.0001) %MON ad_trcstat_adptracer05_del2  =   2.3708706070401E+02
(PID.TID 0000.0001) %MON ad_trcstat_adptracer06_max   =   1.5811666342240E+10
(PID.TID 0000.0001) %MON ad_trcstat_adptracer06_min   =  -1.4793027264871E+10
(PID.TID 0000.0001) %MON ad_trcstat_adptracer06_mean  =   1.8183074168141E+07
(PID.TID 0000.0001) %MON ad_trcstat_adptracer06_sd    =   5.9430890466565E+08
(PID.TID 0000.0001) %MON ad_trcstat_adptracer06_del2  =   2.4050795586303E+06
(PID.TID 0000.0001) %MON ad_trcstat_adptracer07_max   =   0.0000000000000E+00
(PID.TID 0000.0001) %MON ad_trcstat_adptracer07_min   =   0.0000000000000E+00
(PID.TID 0000.0001) %MON ad_trcstat_adptracer07_mean  =   0.0000000000000E+00
(PID.TID 0000.0001) %MON ad_trcstat_adptracer07_sd    =   0.0000000000000E+00
(PID.TID 0000.0001) %MON ad_trcstat_adptracer07_del2  =   0.0000000000000E+00
(PID.TID 0000.0001) %MON ad_trcstat_adptracer08_max   =   0.0000000000000E+00
(PID.TID 0000.0001) %MON ad_trcstat_adptracer08_min   =   0.0000000000000E+00
(PID.TID 0000.0001) %MON ad_trcstat_adptracer08_mean  =   0.0000000000000E+00
(PID.TID 0000.0001) %MON ad_trcstat_adptracer08_sd    =   0.0000000000000E+00
(PID.TID 0000.0001) %MON ad_trcstat_adptracer08_del2  =   0.0000000000000E+00
(PID.TID 0000.0001) %MON ad_trcstat_adptracer09_max   =   0.0000000000000E+00
(PID.TID 0000.0001) %MON ad_trcstat_adptracer09_min   =   0.0000000000000E+00
(PID.TID 0000.0001) %MON ad_trcstat_adptracer09_mean  =   0.0000000000000E+00
(PID.TID 0000.0001) %MON ad_trcstat_adptracer09_sd    =   0.0000000000000E+00
(PID.TID 0000.0001) %MON ad_trcstat_adptracer09_del2  =   0.0000000000000E+00
(PID.TID 0000.0001) // =======================================================
(PID.TID 0000.0001) // End AD_MONITOR ptracer field statistics
(PID.TID 0000.0001) // =======================================================
 cg2d: Sum(rhs),rhsMax =  -1.08988373881402E-11  6.45053386290583E-02
 cg2d: Sum(rhs),rhsMax =   1.87154993369631E-06  8.98593388891255E+00
 cg2d: Sum(rhs),rhsMax =   1.87067268342389E-06  8.99014660967693E+00
 cg2d: Sum(rhs),rhsMax =   1.86979781346963E-06  8.99435321454164E+00
 cg2d: Sum(rhs),rhsMax =   1.86892326325960E-06  8.99856146382182E+00
 cg2d: Sum(rhs),rhsMax =   1.74441985478779E-06  9.00277874909218E+00
 cg2d: Sum(rhs),rhsMax =  -1.09401376846563E-11  6.46659581461579E-02
 cg2d: Sum(rhs),rhsMax =   1.87154993369631E-06  8.98593388891255E+00
 cg2d: Sum(rhs),rhsMax =   1.87067268342389E-06  8.99014660967693E+00
 cg2d: Sum(rhs),rhsMax =   1.86979781346963E-06  8.99435321454164E+00
 cg2d: Sum(rhs),rhsMax =   1.27747184563987E-06  8.99856147195189E+00
 cg2d: Sum(rhs),rhsMax =  -1.10635944849946E-11  6.46902946265227E-02
 cg2d: Sum(rhs),rhsMax =   1.87154993369631E-06  8.98593388891255E+00
 cg2d: Sum(rhs),rhsMax =   1.87067268342389E-06  8.99014660967693E+00
 cg2d: Sum(rhs),rhsMax =   2.59310827033232E-06  8.99435320707599E+00
 cg2d: Sum(rhs),rhsMax =  -1.10529363439582E-11  6.51921691535609E-02
 cg2d: Sum(rhs),rhsMax =   1.87154993369631E-06  8.98593388891255E+00
 cg2d: Sum(rhs),rhsMax =   2.82537542517503E-06  8.99014637044147E+00
 cg2d: Sum(rhs),rhsMax =  -1.10684794663030E-11  6.57658361687654E-02
 cg2d: Sum(rhs),rhsMax =   1.87154960684666E-06  8.98593388885816E+00
 cg2d: Sum(rhs),rhsMax =  -1.11142206549175E-11  6.60928904768109E-02
 EXTERNAL_FIELDS_LOAD, it=   3600000 : Reading new data, i0,i1=   12    1 (prev=   12    2 )
 DIC_FIELDS_LOAD, it=   3600000 : Reading new data, i0,i1=   12    1 (prev=   12    0 )
 cg2d: Sum(rhs),rhsMax =   1.69318610687696E-07  8.73439699737069E+00
 cg2d: Sum(rhs),rhsMax =   1.69217777568065E-07  8.73957985685053E+00
 cg2d: Sum(rhs),rhsMax =   1.69116930237578E-07  8.74478996407667E+00
 cg2d: Sum(rhs),rhsMax =   1.69015713424869E-07  8.75002525197054E+00
 cg2d: Sum(rhs),rhsMax =   1.68913977915963E-07  8.75528319149979E+00
 cg2d: Sum(rhs),rhsMax =   1.68812391621032E-07  8.76056091159563E+00
 cg2d: Sum(rhs),rhsMax =   1.68710130310501E-07  8.76585531016545E+00
 cg2d: Sum(rhs),rhsMax =   1.68607783734842E-07  8.77116317961867E+00
 cg2d: Sum(rhs),rhsMax =   1.68505465580893E-07  8.77648131488675E+00
 cg2d: Sum(rhs),rhsMax =   1.68403296640918E-07  8.78180660701903E+00
 cg2d: Sum(rhs),rhsMax =   1.68301063752097E-07  8.78713610702002E+00
 cg2d: Sum(rhs),rhsMax =   1.68199015604387E-07  8.79246706727320E+00
 cg2d: Sum(rhs),rhsMax =   1.68096867980694E-07  8.79779694946195E+00
 cg2d: Sum(rhs),rhsMax =   1.67995075628369E-07  8.80312339652564E+00
 cg2d: Sum(rhs),rhsMax =   1.67893297486899E-07  8.80844419596376E+00
 cg2d: Sum(rhs),rhsMax =   1.67792002514489E-07  8.81375727000352E+00
 cg2d: Sum(rhs),rhsMax =   1.67690991759173E-07  8.81906074076855E+00
 cg2d: Sum(rhs),rhsMax =   1.67590364696935E-07  8.82435302858595E+00
 cg2d: Sum(rhs),rhsMax =   1.67489801583542E-07  8.82963296688162E+00
 cg2d: Sum(rhs),rhsMax =   1.67389771377202E-07  8.83489991268453E+00
 cg2d: Sum(rhs),rhsMax =   1.67290018282529E-07  8.84015381998810E+00
 cg2d: Sum(rhs),rhsMax =   1.67191025468583E-07  8.84539524558423E+00
 cg2d: Sum(rhs),rhsMax =   1.67091911862371E-07  8.85062527386172E+00
 cg2d: Sum(rhs),rhsMax =   1.66993110894964E-07  8.85584539161906E+00
 cg2d: Sum(rhs),rhsMax =   1.66895297581959E-07  8.86105731971219E+00
 cg2d: Sum(rhs),rhsMax =   1.66797214262715E-07  8.86626284368505E+00
 cg2d: Sum(rhs),rhsMax =   1.66699088310907E-07  8.87146368108963E+00
 cg2d: Sum(rhs),rhsMax =   1.66601175521919E-07  8.87666140941337E+00
 cg2d: Sum(rhs),rhsMax =   1.66503703269427E-07  8.88185744320308E+00
 cg2d: Sum(rhs),rhsMax =   1.66406401547192E-07  8.88705304968201E+00
 EXTERNAL_FIELDS_LOAD, it=   3600030 : Reading new data, i0,i1=    1    2 (prev=   12    1 )
 DIC_FIELDS_LOAD, it=   3600030 : Reading new data, i0,i1=    1    2 (prev=   12    1 )
 cg2d: Sum(rhs),rhsMax =   1.66308751659017E-07  8.89224939629417E+00
 cg2d: Sum(rhs),rhsMax =   1.66211989949261E-07  8.89742905273518E+00
 cg2d: Sum(rhs),rhsMax =   1.66115810884548E-07  8.90258194312370E+00
 cg2d: Sum(rhs),rhsMax =   1.66020008407486E-07  8.90769862985287E+00
 cg2d: Sum(rhs),rhsMax =   1.65925222006535E-07  8.91277064894441E+00
 cg2d: Sum(rhs),rhsMax =   1.65832325649262E-07  8.91779073567431E+00
 cg2d: Sum(rhs),rhsMax =   1.65739969304468E-07  8.92275296238945E+00
 cg2d: Sum(rhs),rhsMax =   1.65648664562923E-07  8.92765282308104E+00
 cg2d: Sum(rhs),rhsMax =   1.65559029596807E-07  8.93248727153984E+00
 cg2d: Sum(rhs),rhsMax =   1.65470908086718E-07  8.93725470683360E+00
 cg2d: Sum(rhs),rhsMax =   2.85313390691044E-07  8.94195523514851E+00
 cg2d: Sum(rhs),rhsMax =   2.85165675961707E-07  8.94658924605204E+00
 cg2d: Sum(rhs),rhsMax =   2.85019957857457E-07  8.95115923354835E+00
 cg2d: Sum(rhs),rhsMax =   2.84876207956586E-07  8.95566830314320E+00
 cg2d: Sum(rhs),rhsMax =   2.84734753108751E-07  8.96012037921798E+00
 cg2d: Sum(rhs),rhsMax =   2.84594761978951E-07  8.96452009008095E+00
 cg2d: Sum(rhs),rhsMax =   2.84456639576547E-07  8.96887267451028E+00
 cg2d: Sum(rhs),rhsMax =   2.84319646937092E-07  8.97318391156488E+00
 cg2d: Sum(rhs),rhsMax =   2.84184437759905E-07  8.97746006879774E+00
 cg2d: Sum(rhs),rhsMax =   2.84050059917718E-07  8.98170785095500E+00
 cg2d: Sum(rhs),rhsMax =   2.85313390691044E-07  8.94195523514851E+00
 cg2d: Sum(rhs),rhsMax =   2.85165675961707E-07  8.94658924605204E+00
 cg2d: Sum(rhs),rhsMax =   2.85019957857457E-07  8.95115923354835E+00
 cg2d: Sum(rhs),rhsMax =   2.84876207956586E-07  8.95566830314320E+00
 cg2d: Sum(rhs),rhsMax =   2.84734753108751E-07  8.96012037921798E+00
 cg2d: Sum(rhs),rhsMax =   2.84594761978951E-07  8.96452009008095E+00
 cg2d: Sum(rhs),rhsMax =   2.84456639576547E-07  8.96887267451028E+00
 cg2d: Sum(rhs),rhsMax =   2.84319646937092E-07  8.97318391156488E+00
 cg2d: Sum(rhs),rhsMax =   2.84184437759905E-07  8.97746006879774E+00
 cg2d: Sum(rhs),rhsMax =   1.19907888063153E-07  8.98170778611317E+00
 cg2d: Sum(rhs),rhsMax =  -1.11852749284935E-11  6.60058835169693E-02
 cg2d: Sum(rhs),rhsMax =   2.85313390691044E-07  8.94195523514851E+00
 cg2d: Sum(rhs),rhsMax =   2.85165675961707E-07  8.94658924605204E+00
 cg2d: Sum(rhs),rhsMax =   2.85019957857457E-07  8.95115923354835E+00
 cg2d: Sum(rhs),rhsMax =   2.84876207956586E-07  8.95566830314320E+00
 cg2d: Sum(rhs),rhsMax =   2.84734753108751E-07  8.96012037921798E+00
 cg2d: Sum(rhs),rhsMax =   2.84594761978951E-07  8.96452009008095E+00
 cg2d: Sum(rhs),rhsMax =   2.84456639576547E-07  8.96887267451028E+00
 cg2d: Sum(rhs),rhsMax =   2.84319646937092E-07  8.97318391156488E+00
 cg2d: Sum(rhs),rhsMax =   4.22767826080417E-07  8.97746002069134E+00
 cg2d: Sum(rhs),rhsMax =  -1.14059872657890E-11  6.55667825958734E-02
 cg2d: Sum(rhs),rhsMax =   2.85313390691044E-07  8.94195523514851E+00
 cg2d: Sum(rhs),rhsMax =   2.85165675961707E-07  8.94658924605204E+00
 cg2d: Sum(rhs),rhsMax =   2.85019957857457E-07  8.95115923354835E+00
 cg2d: Sum(rhs),rhsMax =   2.84876207956586E-07  8.95566830314320E+00
 cg2d: Sum(rhs),rhsMax =   2.84734753108751E-07  8.96012037921798E+00
 cg2d: Sum(rhs),rhsMax =   2.84594761978951E-07  8.96452009008095E+00
 cg2d: Sum(rhs),rhsMax =   2.84456639576547E-07  8.96887267451028E+00
 cg2d: Sum(rhs),rhsMax =   6.00799630490201E-07  8.97318402809061E+00
 cg2d: Sum(rhs),rhsMax =  -1.15494280805706E-11  6.50035344091298E-02
 cg2d: Sum(rhs),rhsMax =   2.85313390691044E-07  8.94195523514851E+00
 cg2d: Sum(rhs),rhsMax =   2.85165675961707E-07  8.94658924605204E+00
 cg2d: Sum(rhs),rhsMax =   2.85019957857457E-07  8.95115923354835E+00
 cg2d: Sum(rhs),rhsMax =   2.84876207956586E-07  8.95566830314320E+00
 cg2d: Sum(rhs),rhsMax =   2.84734753108751E-07  8.96012037921798E+00
 cg2d: Sum(rhs),rhsMax =   2.84594761978951E-07  8.96452009008095E+00
 cg2d: Sum(rhs),rhsMax =   1.02960633086013E-06  8.96887244255673E+00
 cg2d: Sum(rhs),rhsMax =  -1.18469678511701E-11  6.45222152557115E-02
 cg2d: Sum(rhs),rhsMax =   2.85313390691044E-07  8.94195523514851E+00
 cg2d: Sum(rhs),rhsMax =   2.85165675961707E-07  8.94658924605204E+00
 cg2d: Sum(rhs),rhsMax =   2.85019957857457E-07  8.95115923354835E+00
 cg2d: Sum(rhs),rhsMax =   2.84876207956586E-07  8.95566830314320E+00
 cg2d: Sum(rhs),rhsMax =   2.84734753108751E-07  8.96012037921798E+00
 cg2d: Sum(rhs),rhsMax =   5.36360907688049E-07  8.96452014655566E+00
 cg2d: Sum(rhs),rhsMax =  -1.19166898571166E-11  6.40563552955499E-02
 cg2d: Sum(rhs),rhsMax =   2.85313390691044E-07  8.94195523514851E+00
 cg2d: Sum(rhs),rhsMax =   2.85165675961707E-07  8.94658924605204E+00
 cg2d: Sum(rhs),rhsMax =   2.85019957857457E-07  8.95115923354835E+00
 cg2d: Sum(rhs),rhsMax =   2.84876207956586E-07  8.95566830314320E+00
 cg2d: Sum(rhs),rhsMax =  -2.64348813061588E-07  8.96012041552688E+00
 cg2d: Sum(rhs),rhsMax =  -1.22435395155662E-11  6.33534735828379E-02
 cg2d: Sum(rhs),rhsMax =   2.85313390691044E-07  8.94195523514851E+00
 cg2d: Sum(rhs),rhsMax =   2.85165675961707E-07  8.94658924605204E+00
 cg2d: Sum(rhs),rhsMax =   2.85019957857457E-07  8.95115923354835E+00
 cg2d: Sum(rhs),rhsMax =  -7.83241347335206E-07  8.95566798387973E+00
 cg2d: Sum(rhs),rhsMax =  -1.24855681349345E-11  6.23896302281330E-02
 cg2d: Sum(rhs),rhsMax =   2.85313390691044E-07  8.94195523514851E+00
 cg2d: Sum(rhs),rhsMax =   2.85165675961707E-07  8.94658924605204E+00
 cg2d: Sum(rhs),rhsMax =   4.67227557976457E-07  8.95115898722663E+00
 cg2d: Sum(rhs),rhsMax =  -1.28221877560009E-11  6.11858126752484E-02
 cg2d: Sum(rhs),rhsMax =   2.85313390691044E-07  8.94195523514851E+00
 cg2d: Sum(rhs),rhsMax =   1.20431533900955E-06  8.94658943949888E+00
 cg2d: Sum(rhs),rhsMax =  -1.32662769658509E-11  5.99273526387826E-02
 cg2d: Sum(rhs),rhsMax =   2.85313625170147E-07  8.94195523544609E+00
 cg2d: Sum(rhs),rhsMax =  -1.34412481145318E-11  5.96883945629380E-02
 EXTERNAL_FIELDS_LOAD, it=   3600000 : Reading new data, i0,i1=   12    1 (prev=   12    2 )
 DIC_FIELDS_LOAD, it=   3600000 : Reading new data, i0,i1=   12    1 (prev=   12    0 )
 cg2d: Sum(rhs),rhsMax =   1.69318610687696E-07  8.73439699737069E+00
 cg2d: Sum(rhs),rhsMax =   1.69217777568065E-07  8.73957985685053E+00
 cg2d: Sum(rhs),rhsMax =   1.69116930237578E-07  8.74478996407667E+00
 cg2d: Sum(rhs),rhsMax =   1.69015713424869E-07  8.75002525197054E+00
 cg2d: Sum(rhs),rhsMax =   1.68913977915963E-07  8.75528319149979E+00
 cg2d: Sum(rhs),rhsMax =   1.68812391621032E-07  8.76056091159563E+00
 cg2d: Sum(rhs),rhsMax =   1.68710130310501E-07  8.76585531016545E+00
 cg2d: Sum(rhs),rhsMax =   1.68607783734842E-07  8.77116317961867E+00
 cg2d: Sum(rhs),rhsMax =   1.68505465580893E-07  8.77648131488675E+00
 cg2d: Sum(rhs),rhsMax =   1.68403296640918E-07  8.78180660701903E+00
 cg2d: Sum(rhs),rhsMax =   1.68301063752097E-07  8.78713610702002E+00
 cg2d: Sum(rhs),rhsMax =   1.68199015604387E-07  8.79246706727320E+00
 cg2d: Sum(rhs),rhsMax =   1.68096867980694E-07  8.79779694946195E+00
 cg2d: Sum(rhs),rhsMax =   1.67995075628369E-07  8.80312339652564E+00
 cg2d: Sum(rhs),rhsMax =   1.67893297486899E-07  8.80844419596376E+00
 cg2d: Sum(rhs),rhsMax =   1.67792002514489E-07  8.81375727000352E+00
 cg2d: Sum(rhs),rhsMax =   1.67690991759173E-07  8.81906074076855E+00
 cg2d: Sum(rhs),rhsMax =   1.67590364696935E-07  8.82435302858595E+00
 cg2d: Sum(rhs),rhsMax =   1.67489801583542E-07  8.82963296688162E+00
 cg2d: Sum(rhs),rhsMax =   1.67389771377202E-07  8.83489991268453E+00
 cg2d: Sum(rhs),rhsMax =   1.67290018282529E-07  8.84015381998810E+00
 cg2d: Sum(rhs),rhsMax =   1.67191025468583E-07  8.84539524558423E+00
 cg2d: Sum(rhs),rhsMax =   1.67091911862371E-07  8.85062527386172E+00
 cg2d: Sum(rhs),rhsMax =   1.66993110894964E-07  8.85584539161906E+00
 cg2d: Sum(rhs),rhsMax =   1.66895297581959E-07  8.86105731971219E+00
 cg2d: Sum(rhs),rhsMax =   1.66797214262715E-07  8.86626284368505E+00
 cg2d: Sum(rhs),rhsMax =   1.66699088310907E-07  8.87146368108963E+00
 cg2d: Sum(rhs),rhsMax =   1.66601175521919E-07  8.87666140941337E+00
 cg2d: Sum(rhs),rhsMax =   1.66503703269427E-07  8.88185744320308E+00
 cg2d: Sum(rhs),rhsMax =   1.66406401547192E-07  8.88705304968201E+00
 EXTERNAL_FIELDS_LOAD, it=   3600030 : Reading new data, i0,i1=    1    2 (prev=   12    1 )
 DIC_FIELDS_LOAD, it=   3600030 : Reading new data, i0,i1=    1    2 (prev=   12    1 )
 cg2d: Sum(rhs),rhsMax =   2.44943407778919E-07  8.89224927846280E+00
 cg2d: Sum(rhs),rhsMax =   2.44800659743305E-07  8.89742897198094E+00
 cg2d: Sum(rhs),rhsMax =   2.44658913572948E-07  8.90258194085792E+00
 cg2d: Sum(rhs),rhsMax =   2.44518339798105E-07  8.90769873735975E+00
 cg2d: Sum(rhs),rhsMax =   2.44378583147409E-07  8.91277088833953E+00
 cg2d: Sum(rhs),rhsMax =   2.44241370239706E-07  8.91779112554554E+00
 cg2d: Sum(rhs),rhsMax =   2.44105549995766E-07  8.92275352034299E+00
 cg2d: Sum(rhs),rhsMax =   2.43971555846656E-07  8.92765356447266E+00
 cg2d: Sum(rhs),rhsMax =   2.43838989888445E-07  8.93248820670091E+00
 cg2d: Sum(rhs),rhsMax =   2.43708896618955E-07  8.93725583918668E+00
 EXTERNAL_FIELDS_LOAD, it=   3600030 : Reading new data, i0,i1=    1    2 (prev=   12    2 )
 DIC_FIELDS_LOAD, it=   3600030 : Reading new data, i0,i1=    1    2 (prev=   12    1 )
 cg2d: Sum(rhs),rhsMax =   2.44943407778919E-07  8.89224927846280E+00
 cg2d: Sum(rhs),rhsMax =   2.44800659743305E-07  8.89742897198094E+00
 cg2d: Sum(rhs),rhsMax =   2.44658913572948E-07  8.90258194085792E+00
 cg2d: Sum(rhs),rhsMax =   2.44518339798105E-07  8.90769873735975E+00
 cg2d: Sum(rhs),rhsMax =   2.44378583147409E-07  8.91277088833953E+00
 cg2d: Sum(rhs),rhsMax =   2.44241370239706E-07  8.91779112554554E+00
 cg2d: Sum(rhs),rhsMax =   2.44105549995766E-07  8.92275352034299E+00
 cg2d: Sum(rhs),rhsMax =   2.43971555846656E-07  8.92765356447266E+00
 cg2d: Sum(rhs),rhsMax =   2.43838989888445E-07  8.93248820670091E+00
 cg2d: Sum(rhs),rhsMax =   5.48483889417639E-07  8.93725610803932E+00
 cg2d: Sum(rhs),rhsMax =  -1.34749988944804E-11  5.99654533289254E-02
 EXTERNAL_FIELDS_LOAD, it=   3600030 : Reading new data, i0,i1=    1    2 (prev=   12    2 )
 DIC_FIELDS_LOAD, it=   3600030 : Reading new data, i0,i1=    1    2 (prev=   12    1 )
 cg2d: Sum(rhs),rhsMax =   2.44943407778919E-07  8.89224927846280E+00
 cg2d: Sum(rhs),rhsMax =   2.44800659743305E-07  8.89742897198094E+00
 cg2d: Sum(rhs),rhsMax =   2.44658913572948E-07  8.90258194085792E+00
 cg2d: Sum(rhs),rhsMax =   2.44518339798105E-07  8.90769873735975E+00
 cg2d: Sum(rhs),rhsMax =   2.44378583147409E-07  8.91277088833953E+00
 cg2d: Sum(rhs),rhsMax =   2.44241370239706E-07  8.91779112554554E+00
 cg2d: Sum(rhs),rhsMax =   2.44105549995766E-07  8.92275352034299E+00
 cg2d: Sum(rhs),rhsMax =   2.43971555846656E-07  8.92765356447266E+00
 cg2d: Sum(rhs),rhsMax =  -2.42289566187992E-07  8.93248808579880E+00
 cg2d: Sum(rhs),rhsMax =  -1.35940148027203E-11  6.01369260302194E-02
 EXTERNAL_FIELDS_LOAD, it=   3600030 : Reading new data, i0,i1=    1    2 (prev=   12    2 )
 DIC_FIELDS_LOAD, it=   3600030 : Reading new data, i0,i1=    1    2 (prev=   12    1 )
 cg2d: Sum(rhs),rhsMax =   2.44943407778919E-07  8.89224927846280E+00
 cg2d: Sum(rhs),rhsMax =   2.44800659743305E-07  8.89742897198094E+00
 cg2d: Sum(rhs),rhsMax =   2.44658913572948E-07  8.90258194085792E+00
 cg2d: Sum(rhs),rhsMax =   2.44518339798105E-07  8.90769873735975E+00
 cg2d: Sum(rhs),rhsMax =   2.44378583147409E-07  8.91277088833953E+00
 cg2d: Sum(rhs),rhsMax =   2.44241370239706E-07  8.91779112554554E+00
 cg2d: Sum(rhs),rhsMax =   2.44105549995766E-07  8.92275352034299E+00
 cg2d: Sum(rhs),rhsMax =   6.54101626196280E-08  8.92765379109438E+00
 cg2d: Sum(rhs),rhsMax =  -1.34141586727310E-11  6.09749721984597E-02
 EXTERNAL_FIELDS_LOAD, it=   3600030 : Reading new data, i0,i1=    1    2 (prev=   12    2 )
 DIC_FIELDS_LOAD, it=   3600030 : Reading new data, i0,i1=    1    2 (prev=   12    1 )
 cg2d: Sum(rhs),rhsMax =   2.44943407778919E-07  8.89224927846280E+00
 cg2d: Sum(rhs),rhsMax =   2.44800659743305E-07  8.89742897198094E+00
 cg2d: Sum(rhs),rhsMax =   2.44658913572948E-07  8.90258194085792E+00
 cg2d: Sum(rhs),rhsMax =   2.44518339798105E-07  8.90769873735975E+00
 cg2d: Sum(rhs),rhsMax =   2.44378583147409E-07  8.91277088833953E+00
 cg2d: Sum(rhs),rhsMax =   2.44241370239706E-07  8.91779112554554E+00
 cg2d: Sum(rhs),rhsMax =   5.60514237690768E-07  8.92275334325899E+00
 cg2d: Sum(rhs),rhsMax =  -1.32933664076518E-11  6.20619861607357E-02
 EXTERNAL_FIELDS_LOAD, it=   3600030 : Reading new data, i0,i1=    1    2 (prev=   12    2 )
 DIC_FIELDS_LOAD, it=   3600030 : Reading new data, i0,i1=    1    2 (prev=   12    1 )
 cg2d: Sum(rhs),rhsMax =   2.44943407778919E-07  8.89224927846280E+00
 cg2d: Sum(rhs),rhsMax =   2.44800659743305E-07  8.89742897198094E+00
 cg2d: Sum(rhs),rhsMax =   2.44658913572948E-07  8.90258194085792E+00
 cg2d: Sum(rhs),rhsMax =   2.44518339798105E-07  8.90769873735975E+00
 cg2d: Sum(rhs),rhsMax =   2.44378583147409E-07  8.91277088833953E+00
 cg2d: Sum(rhs),rhsMax =  -9.39908701980130E-08  8.91779150256984E+00
 cg2d: Sum(rhs),rhsMax =  -1.32311939182728E-11  6.29945650193357E-02
 EXTERNAL_FIELDS_LOAD, it=   3600030 : Reading new data, i0,i1=    1    2 (prev=   12    2 )
 DIC_FIELDS_LOAD, it=   3600030 : Reading new data, i0,i1=    1    2 (prev=   12    1 )
 cg2d: Sum(rhs),rhsMax =   2.44943407778919E-07  8.89224927846280E+00
 cg2d: Sum(rhs),rhsMax =   2.44800659743305E-07  8.89742897198094E+00
 cg2d: Sum(rhs),rhsMax =   2.44658913572948E-07  8.90258194085792E+00
 cg2d: Sum(rhs),rhsMax =   2.44518339798105E-07  8.90769873735975E+00
 cg2d: Sum(rhs),rhsMax =  -6.07106848349304E-07  8.91277078808747E+00
 cg2d: Sum(rhs),rhsMax =  -1.31770150346711E-11  6.38080435748874E-02
 EXTERNAL_FIELDS_LOAD, it=   3600030 : Reading new data, i0,i1=    1    2 (prev=   12    2 )
 DIC_FIELDS_LOAD, it=   3600030 : Reading new data, i0,i1=    1    2 (prev=   12    1 )
 cg2d: Sum(rhs),rhsMax =   2.44943407778919E-07  8.89224927846280E+00
 cg2d: Sum(rhs),rhsMax =   2.44800659743305E-07  8.89742897198094E+00
 cg2d: Sum(rhs),rhsMax =   2.44658913572948E-07  8.90258194085792E+00
 cg2d: Sum(rhs),rhsMax =   6.37896135913252E-07  8.90769847050030E+00
 cg2d: Sum(rhs),rhsMax =  -1.31166189021314E-11  6.45022213472219E-02
 EXTERNAL_FIELDS_LOAD, it=   3600030 : Reading new data, i0,i1=    1    2 (prev=   12    2 )
 DIC_FIELDS_LOAD, it=   3600030 : Reading new data, i0,i1=    1    2 (prev=   12    1 )
 cg2d: Sum(rhs),rhsMax =   2.44943407778919E-07  8.89224927846280E+00
 cg2d: Sum(rhs),rhsMax =   2.44800659743305E-07  8.89742897198094E+00
 cg2d: Sum(rhs),rhsMax =   1.98052333644227E-07  8.90258199812184E+00
 cg2d: Sum(rhs),rhsMax =  -1.30868649250715E-11  6.50560218204959E-02
 EXTERNAL_FIELDS_LOAD, it=   3600030 : Reading new data, i0,i1=    1    2 (prev=   12    2 )
 DIC_FIELDS_LOAD, it=   3600030 : Reading new data, i0,i1=    1    2 (prev=   12    1 )
 cg2d: Sum(rhs),rhsMax =   2.44943407778919E-07  8.89224927846280E+00
 cg2d: Sum(rhs),rhsMax =  -3.67345577956257E-07  8.89742907862496E+00
 cg2d: Sum(rhs),rhsMax =  -1.32143185282985E-11  6.54493263563952E-02
 EXTERNAL_FIELDS_LOAD, it=   3600030 : Reading new data, i0,i1=    1    2 (prev=   12    2 )
 DIC_FIELDS_LOAD, it=   3600030 : Reading new data, i0,i1=    1    2 (prev=   12    1 )
 cg2d: Sum(rhs),rhsMax =   2.44943471727765E-07  8.89224927811915E+00
 cg2d: Sum(rhs),rhsMax =  -1.32094335469901E-11  6.56421946516865E-02
 EXTERNAL_FIELDS_LOAD, it=   3600000 : Reading new data, i0,i1=   12    1 (prev=   12    2 )
 DIC_FIELDS_LOAD, it=   3600000 : Reading new data, i0,i1=   12    1 (prev=   12    0 )
 cg2d: Sum(rhs),rhsMax =   1.69318610687696E-07  8.73439699737069E+00
 cg2d: Sum(rhs),rhsMax =   1.69217777568065E-07  8.73957985685053E+00
 cg2d: Sum(rhs),rhsMax =   1.69116930237578E-07  8.74478996407667E+00
 cg2d: Sum(rhs),rhsMax =   1.69015713424869E-07  8.75002525197054E+00
 cg2d: Sum(rhs),rhsMax =   1.68913977915963E-07  8.75528319149979E+00
 cg2d: Sum(rhs),rhsMax =   1.68812391621032E-07  8.76056091159563E+00
 cg2d: Sum(rhs),rhsMax =   1.68710130310501E-07  8.76585531016545E+00
 cg2d: Sum(rhs),rhsMax =   1.68607783734842E-07  8.77116317961867E+00
 cg2d: Sum(rhs),rhsMax =   1.68505465580893E-07  8.77648131488675E+00
 cg2d: Sum(rhs),rhsMax =   1.68403296640918E-07  8.78180660701903E+00
 cg2d: Sum(rhs),rhsMax =   1.68301063752097E-07  8.78713610702002E+00
 cg2d: Sum(rhs),rhsMax =   1.68199015604387E-07  8.79246706727320E+00
 cg2d: Sum(rhs),rhsMax =   1.68096867980694E-07  8.79779694946195E+00
 cg2d: Sum(rhs),rhsMax =   1.67995075628369E-07  8.80312339652564E+00
 cg2d: Sum(rhs),rhsMax =   1.67893297486899E-07  8.80844419596376E+00
 cg2d: Sum(rhs),rhsMax =   1.67792002514489E-07  8.81375727000352E+00
 cg2d: Sum(rhs),rhsMax =   1.67690991759173E-07  8.81906074076855E+00
 cg2d: Sum(rhs),rhsMax =   1.67590364696935E-07  8.82435302858595E+00
 cg2d: Sum(rhs),rhsMax =   1.67489801583542E-07  8.82963296688162E+00
 cg2d: Sum(rhs),rhsMax =   1.67389771377202E-07  8.83489991268453E+00
 cg2d: Sum(rhs),rhsMax =   4.96951628292663E-07  8.84015409549759E+00
 cg2d: Sum(rhs),rhsMax =   4.96656795689887E-07  8.84539551377758E+00
 cg2d: Sum(rhs),rhsMax =   4.96363284696599E-07  8.85062553515021E+00
 cg2d: Sum(rhs),rhsMax =   4.96070725830577E-07  8.85584564623426E+00
 cg2d: Sum(rhs),rhsMax =   4.95778692766180E-07  8.86105756545950E+00
 cg2d: Sum(rhs),rhsMax =   4.95487732621314E-07  8.86626307676426E+00
 cg2d: Sum(rhs),rhsMax =   4.95196793792729E-07  8.87146389877167E+00
 cg2d: Sum(rhs),rhsMax =   4.94906934989103E-07  8.87666161219040E+00
 cg2d: Sum(rhs),rhsMax =   4.94617104607187E-07  8.88185763531788E+00
 cg2d: Sum(rhs),rhsMax =   4.94327899502878E-07  8.88705323819737E+00
 cg2d: Sum(rhs),rhsMax =   4.96951628292663E-07  8.84015409549759E+00
 cg2d: Sum(rhs),rhsMax =   4.96656795689887E-07  8.84539551377758E+00
 cg2d: Sum(rhs),rhsMax =   4.96363284696599E-07  8.85062553515021E+00
 cg2d: Sum(rhs),rhsMax =   4.96070725830577E-07  8.85584564623426E+00
 cg2d: Sum(rhs),rhsMax =   4.95778692766180E-07  8.86105756545950E+00
 cg2d: Sum(rhs),rhsMax =   4.95487732621314E-07  8.86626307676426E+00
 cg2d: Sum(rhs),rhsMax =   4.95196793792729E-07  8.87146389877167E+00
 cg2d: Sum(rhs),rhsMax =   4.94906934989103E-07  8.87666161219040E+00
 cg2d: Sum(rhs),rhsMax =   4.94617104607187E-07  8.88185763531788E+00
 cg2d: Sum(rhs),rhsMax =   4.65848088992971E-07  8.88705315451224E+00
 cg2d: Sum(rhs),rhsMax =  -1.33733024654248E-11  6.56746610113267E-02
 cg2d: Sum(rhs),rhsMax =   4.96951628292663E-07  8.84015409549759E+00
 cg2d: Sum(rhs),rhsMax =   4.96656795689887E-07  8.84539551377758E+00
 cg2d: Sum(rhs),rhsMax =   4.96363284696599E-07  8.85062553515021E+00
 cg2d: Sum(rhs),rhsMax =   4.96070725830577E-07  8.85584564623426E+00
 cg2d: Sum(rhs),rhsMax =   4.95778692766180E-07  8.86105756545950E+00
 cg2d: Sum(rhs),rhsMax =   4.95487732621314E-07  8.86626307676426E+00
 cg2d: Sum(rhs),rhsMax =   4.95196793792729E-07  8.87146389877167E+00
 cg2d: Sum(rhs),rhsMax =   4.94906934989103E-07  8.87666161219040E+00
 cg2d: Sum(rhs),rhsMax =   1.38993718934444E-06  8.88185778430680E+00
 cg2d: Sum(rhs),rhsMax =  -1.34119382266817E-11  6.56197098199894E-02
 cg2d: Sum(rhs),rhsMax =   4.96951628292663E-07  8.84015409549759E+00
 cg2d: Sum(rhs),rhsMax =   4.96656795689887E-07  8.84539551377758E+00
 cg2d: Sum(rhs),rhsMax =   4.96363284696599E-07  8.85062553515021E+00
 cg2d: Sum(rhs),rhsMax =   4.96070725830577E-07  8.85584564623426E+00
 cg2d: Sum(rhs),rhsMax =   4.95778692766180E-07  8.86105756545950E+00
 cg2d: Sum(rhs),rhsMax =   4.95487732621314E-07  8.86626307676426E+00
 cg2d: Sum(rhs),rhsMax =   4.95196793792729E-07  8.87146389877167E+00
 cg2d: Sum(rhs),rhsMax =   4.86417690126473E-07  8.87666177200324E+00
 cg2d: Sum(rhs),rhsMax =  -1.36024524977074E-11  6.53804528710434E-02
 cg2d: Sum(rhs),rhsMax =   4.96951628292663E-07  8.84015409549759E+00
 cg2d: Sum(rhs),rhsMax =   4.96656795689887E-07  8.84539551377758E+00
 cg2d: Sum(rhs),rhsMax =   4.96363284696599E-07  8.85062553515021E+00
 cg2d: Sum(rhs),rhsMax =   4.96070725830577E-07  8.85584564623426E+00
 cg2d: Sum(rhs),rhsMax =   4.95778692766180E-07  8.86105756545950E+00
 cg2d: Sum(rhs),rhsMax =   4.95487732621314E-07  8.86626307676426E+00
 cg2d: Sum(rhs),rhsMax =   2.60681012775876E-07  8.87146372710906E+00
 cg2d: Sum(rhs),rhsMax =  -1.38289379947309E-11  6.49252331837055E-02
 cg2d: Sum(rhs),rhsMax =   4.96951628292663E-07  8.84015409549759E+00
 cg2d: Sum(rhs),rhsMax =   4.96656795689887E-07  8.84539551377758E+00
 cg2d: Sum(rhs),rhsMax =   4.96363284696599E-07  8.85062553515021E+00
 cg2d: Sum(rhs),rhsMax =   4.96070725830577E-07  8.85584564623426E+00
 cg2d: Sum(rhs),rhsMax =   4.95778692766180E-07  8.86105756545950E+00
 cg2d: Sum(rhs),rhsMax =   4.17890930748399E-08  8.86626300030400E+00
 cg2d: Sum(rhs),rhsMax =  -1.40985001451099E-11  6.42806100858677E-02
 cg2d: Sum(rhs),rhsMax =   4.96951628292663E-07  8.84015409549759E+00
 cg2d: Sum(rhs),rhsMax =   4.96656795689887E-07  8.84539551377758E+00
 cg2d: Sum(rhs),rhsMax =   4.96363284696599E-07  8.85062553515021E+00
 cg2d: Sum(rhs),rhsMax =   4.96070725830577E-07  8.85584564623426E+00
 cg2d: Sum(rhs),rhsMax =   1.16797205151897E-06  8.86105734599421E+00
 cg2d: Sum(rhs),rhsMax =  -1.43494105486752E-11  6.34656005668427E-02
 cg2d: Sum(rhs),rhsMax =   4.96951628292663E-07  8.84015409549759E+00
 cg2d: Sum(rhs),rhsMax =   4.96656795689887E-07  8.84539551377758E+00
 cg2d: Sum(rhs),rhsMax =   4.96363284696599E-07  8.85062553515021E+00
 cg2d: Sum(rhs),rhsMax =   2.16764284743931E-07  8.85584595185470E+00
 cg2d: Sum(rhs),rhsMax =  -1.47815093498593E-11  6.24927414476364E-02
 cg2d: Sum(rhs),rhsMax =   4.96951628292663E-07  8.84015409549759E+00
 cg2d: Sum(rhs),rhsMax =   4.96656795689887E-07  8.84539551377758E+00
 cg2d: Sum(rhs),rhsMax =  -1.28723236514361E-07  8.85062557228493E+00
 cg2d: Sum(rhs),rhsMax =  -1.51141321680370E-11  6.13848340784153E-02
 cg2d: Sum(rhs),rhsMax =   4.96951628292663E-07  8.84015409549759E+00
 cg2d: Sum(rhs),rhsMax =  -4.84766360386857E-07  8.84539586494475E+00
 cg2d: Sum(rhs),rhsMax =  -1.54600776625102E-11  6.03027089327513E-02
 cg2d: Sum(rhs),rhsMax =   4.96951535922108E-07  8.84015409531304E+00
 cg2d: Sum(rhs),rhsMax =  -1.59112722997179E-11  5.90930679491499E-02
 EXTERNAL_FIELDS_LOAD, it=   3600000 : Reading new data, i0,i1=   12    1 (prev=   12    1 )
 DIC_FIELDS_LOAD, it=   3600000 : Reading new data, i0,i1=   12    1 (prev=   12    0 )
 cg2d: Sum(rhs),rhsMax =   1.69318610687696E-07  8.73439699737069E+00
 cg2d: Sum(rhs),rhsMax =   1.69217777568065E-07  8.73957985685053E+00
 cg2d: Sum(rhs),rhsMax =   1.69116930237578E-07  8.74478996407667E+00
 cg2d: Sum(rhs),rhsMax =   1.69015713424869E-07  8.75002525197054E+00
 cg2d: Sum(rhs),rhsMax =   1.68913977915963E-07  8.75528319149979E+00
 cg2d: Sum(rhs),rhsMax =   1.68812391621032E-07  8.76056091159563E+00
 cg2d: Sum(rhs),rhsMax =   1.68710130310501E-07  8.76585531016545E+00
 cg2d: Sum(rhs),rhsMax =   1.68607783734842E-07  8.77116317961867E+00
 cg2d: Sum(rhs),rhsMax =   1.68505465580893E-07  8.77648131488675E+00
 cg2d: Sum(rhs),rhsMax =   1.68403296640918E-07  8.78180660701903E+00
 cg2d: Sum(rhs),rhsMax =   1.05541818840038E-06  8.78713645330004E+00
 cg2d: Sum(rhs),rhsMax =   1.05477796807918E-06  8.79246739608905E+00
 cg2d: Sum(rhs),rhsMax =   1.05413862883097E-06  8.79779723871654E+00
 cg2d: Sum(rhs),rhsMax =   1.05350127910242E-06  8.80312361896913E+00
 cg2d: Sum(rhs),rhsMax =   1.05286451201891E-06  8.80844432733289E+00
 cg2d: Sum(rhs),rhsMax =   1.05222949287054E-06  8.81375729748309E+00
 cg2d: Sum(rhs),rhsMax =   1.05159686825118E-06  8.81906066790424E+00
 cg2d: Sum(rhs),rhsMax =   1.05096563629559E-06  8.82435287529249E+00
 cg2d: Sum(rhs),rhsMax =   1.05033750230632E-06  8.82963276546081E+00
 cg2d: Sum(rhs),rhsMax =   1.04971105940876E-06  8.83489970193122E+00
 cg2d: Sum(rhs),rhsMax =   1.05541818840038E-06  8.78713645330004E+00
 cg2d: Sum(rhs),rhsMax =   1.05477796807918E-06  8.79246739608905E+00
 cg2d: Sum(rhs),rhsMax =   1.05413862883097E-06  8.79779723871654E+00
 cg2d: Sum(rhs),rhsMax =   1.05350127910242E-06  8.80312361896913E+00
 cg2d: Sum(rhs),rhsMax =   1.05286451201891E-06  8.80844432733289E+00
 cg2d: Sum(rhs),rhsMax =   1.05222949287054E-06  8.81375729748309E+00
 cg2d: Sum(rhs),rhsMax =   1.05159686825118E-06  8.81906066790424E+00
 cg2d: Sum(rhs),rhsMax =   1.05096563629559E-06  8.82435287529249E+00
 cg2d: Sum(rhs),rhsMax =   1.05033750230632E-06  8.82963276546081E+00
 cg2d: Sum(rhs),rhsMax =   5.76455967404854E-07  8.83489969311014E+00
 cg2d: Sum(rhs),rhsMax =  -1.63939972708249E-11  5.78569424976668E-02
 cg2d: Sum(rhs),rhsMax =   1.05541818840038E-06  8.78713645330004E+00
 cg2d: Sum(rhs),rhsMax =   1.05477796807918E-06  8.79246739608905E+00
 cg2d: Sum(rhs),rhsMax =   1.05413862883097E-06  8.79779723871654E+00
 cg2d: Sum(rhs),rhsMax =   1.05350127910242E-06  8.80312361896913E+00
 cg2d: Sum(rhs),rhsMax =   1.05286451201891E-06  8.80844432733289E+00
 cg2d: Sum(rhs),rhsMax =   1.05222949287054E-06  8.81375729748309E+00
 cg2d: Sum(rhs),rhsMax =   1.05159686825118E-06  8.81906066790424E+00
 cg2d: Sum(rhs),rhsMax =   1.05096563629559E-06  8.82435287529249E+00
 cg2d: Sum(rhs),rhsMax =   1.28085013528789E-06  8.82963290653301E+00
 cg2d: Sum(rhs),rhsMax =  -1.65356617287671E-11  5.77695140299139E-02
 cg2d: Sum(rhs),rhsMax =   1.05541818840038E-06  8.78713645330004E+00
 cg2d: Sum(rhs),rhsMax =   1.05477796807918E-06  8.79246739608905E+00
 cg2d: Sum(rhs),rhsMax =   1.05413862883097E-06  8.79779723871654E+00
 cg2d: Sum(rhs),rhsMax =   1.05350127910242E-06  8.80312361896913E+00
 cg2d: Sum(rhs),rhsMax =   1.05286451201891E-06  8.80844432733289E+00
 cg2d: Sum(rhs),rhsMax =   1.05222949287054E-06  8.81375729748309E+00
 cg2d: Sum(rhs),rhsMax =   1.05159686825118E-06  8.81906066790424E+00
 cg2d: Sum(rhs),rhsMax =   1.39583139002752E-06  8.82435324480596E+00
 cg2d: Sum(rhs),rhsMax =  -1.67164060371761E-11  5.76312463613752E-02
 cg2d: Sum(rhs),rhsMax =   1.05541818840038E-06  8.78713645330004E+00
 cg2d: Sum(rhs),rhsMax =   1.05477796807918E-06  8.79246739608905E+00
 cg2d: Sum(rhs),rhsMax =   1.05413862883097E-06  8.79779723871654E+00
 cg2d: Sum(rhs),rhsMax =   1.05350127910242E-06  8.80312361896913E+00
 cg2d: Sum(rhs),rhsMax =   1.05286451201891E-06  8.80844432733289E+00
 cg2d: Sum(rhs),rhsMax =   1.05222949287054E-06  8.81375729748309E+00
 cg2d: Sum(rhs),rhsMax =   1.57711458115273E-06  8.81906104998920E+00
 cg2d: Sum(rhs),rhsMax =  -1.68163261093923E-11  5.75992732827445E-02
 cg2d: Sum(rhs),rhsMax =   1.05541818840038E-06  8.78713645330004E+00
 cg2d: Sum(rhs),rhsMax =   1.05477796807918E-06  8.79246739608905E+00
 cg2d: Sum(rhs),rhsMax =   1.05413862883097E-06  8.79779723871654E+00
 cg2d: Sum(rhs),rhsMax =   1.05350127910242E-06  8.80312361896913E+00
 cg2d: Sum(rhs),rhsMax =   1.05286451201891E-06  8.80844432733289E+00
 cg2d: Sum(rhs),rhsMax =   5.87475128099868E-07  8.81375752871204E+00
 cg2d: Sum(rhs),rhsMax =  -1.67834635078634E-11  5.81531594801893E-02
 cg2d: Sum(rhs),rhsMax =   1.05541818840038E-06  8.78713645330004E+00
 cg2d: Sum(rhs),rhsMax =   1.05477796807918E-06  8.79246739608905E+00
 cg2d: Sum(rhs),rhsMax =   1.05413862883097E-06  8.79779723871654E+00
 cg2d: Sum(rhs),rhsMax =   1.05350127910242E-06  8.80312361896913E+00
 cg2d: Sum(rhs),rhsMax =   1.57571220427144E-06  8.80844397255852E+00
 cg2d: Sum(rhs),rhsMax =  -1.67350577839898E-11  5.87396499486325E-02
 cg2d: Sum(rhs),rhsMax =   1.05541818840038E-06  8.78713645330004E+00
 cg2d: Sum(rhs),rhsMax =   1.05477796807918E-06  8.79246739608905E+00
 cg2d: Sum(rhs),rhsMax =   1.05413862883097E-06  8.79779723871654E+00
 cg2d: Sum(rhs),rhsMax =   7.22400237407328E-07  8.80312326063721E+00
 cg2d: Sum(rhs),rhsMax =  -1.67763580805058E-11  5.91374334227732E-02
 cg2d: Sum(rhs),rhsMax =   1.05541818840038E-06  8.78713645330004E+00
 cg2d: Sum(rhs),rhsMax =   1.05477796807918E-06  8.79246739608905E+00
 cg2d: Sum(rhs),rhsMax =   2.06646798517340E-06  8.79779753546422E+00
 cg2d: Sum(rhs),rhsMax =  -1.68376423914651E-11  5.93539554785065E-02
 cg2d: Sum(rhs),rhsMax =   1.05541818840038E-06  8.78713645330004E+00
 cg2d: Sum(rhs),rhsMax =   1.42743775199961E-06  8.79246738145001E+00
 cg2d: Sum(rhs),rhsMax =  -1.68691727253645E-11  5.96194869877541E-02
 cg2d: Sum(rhs),rhsMax =   1.05541782602359E-06  8.78713645300573E+00
 cg2d: Sum(rhs),rhsMax =  -1.72053482572210E-11  5.91888258675436E-02
 EXTERNAL_FIELDS_LOAD, it=   3600000 : Reading new data, i0,i1=   12    1 (prev=   12    1 )
 DIC_FIELDS_LOAD, it=   3600000 : Reading new data, i0,i1=   12    1 (prev=   12    0 )
 cg2d: Sum(rhs),rhsMax =   1.69318610687696E-07  8.73439699737069E+00
 cg2d: Sum(rhs),rhsMax =   1.69217777568065E-07  8.73957985685053E+00
 cg2d: Sum(rhs),rhsMax =   1.69116930237578E-07  8.74478996407667E+00
 cg2d: Sum(rhs),rhsMax =   1.69015713424869E-07  8.75002525197054E+00
 cg2d: Sum(rhs),rhsMax =   1.68913977915963E-07  8.75528319149979E+00
 cg2d: Sum(rhs),rhsMax =   1.68812391621032E-07  8.76056091159563E+00
 cg2d: Sum(rhs),rhsMax =   1.68710130310501E-07  8.76585531016545E+00
 cg2d: Sum(rhs),rhsMax =   1.68607783734842E-07  8.77116317961867E+00
 cg2d: Sum(rhs),rhsMax =   1.68505465580893E-07  8.77648131488675E+00
 cg2d: Sum(rhs),rhsMax =   1.68403296640918E-07  8.78180660701903E+00
 EXTERNAL_FIELDS_LOAD, it=   3600000 : Reading new data, i0,i1=   12    1 (prev=   12    1 )
 DIC_FIELDS_LOAD, it=   3600000 : Reading new data, i0,i1=   12    1 (prev=   12    0 )
 cg2d: Sum(rhs),rhsMax =   1.69318610687696E-07  8.73439699737069E+00
 cg2d: Sum(rhs),rhsMax =   1.69217777568065E-07  8.73957985685053E+00
 cg2d: Sum(rhs),rhsMax =   1.69116930237578E-07  8.74478996407667E+00
 cg2d: Sum(rhs),rhsMax =   1.69015713424869E-07  8.75002525197054E+00
 cg2d: Sum(rhs),rhsMax =   1.68913977915963E-07  8.75528319149979E+00
 cg2d: Sum(rhs),rhsMax =   1.68812391621032E-07  8.76056091159563E+00
 cg2d: Sum(rhs),rhsMax =   1.68710130310501E-07  8.76585531016545E+00
 cg2d: Sum(rhs),rhsMax =   1.68607783734842E-07  8.77116317961867E+00
 cg2d: Sum(rhs),rhsMax =   1.68505465580893E-07  8.77648131488675E+00
 cg2d: Sum(rhs),rhsMax =   3.31660203300999E-07  8.78180684858381E+00
 cg2d: Sum(rhs),rhsMax =  -1.63642432937650E-11  6.23769746417374E-02
 EXTERNAL_FIELDS_LOAD, it=   3600000 : Reading new data, i0,i1=   12    1 (prev=   12    1 )
 DIC_FIELDS_LOAD, it=   3600000 : Reading new data, i0,i1=   12    1 (prev=   12    0 )
 cg2d: Sum(rhs),rhsMax =   1.69318610687696E-07  8.73439699737069E+00
 cg2d: Sum(rhs),rhsMax =   1.69217777568065E-07  8.73957985685053E+00
 cg2d: Sum(rhs),rhsMax =   1.69116930237578E-07  8.74478996407667E+00
 cg2d: Sum(rhs),rhsMax =   1.69015713424869E-07  8.75002525197054E+00
 cg2d: Sum(rhs),rhsMax =   1.68913977915963E-07  8.75528319149979E+00
 cg2d: Sum(rhs),rhsMax =   1.68812391621032E-07  8.76056091159563E+00
 cg2d: Sum(rhs),rhsMax =   1.68710130310501E-07  8.76585531016545E+00
 cg2d: Sum(rhs),rhsMax =   1.68607783734842E-07  8.77116317961867E+00
 cg2d: Sum(rhs),rhsMax =   1.04218521101984E-06  8.77648148906394E+00
 cg2d: Sum(rhs),rhsMax =  -1.55653268052447E-11  6.60767501782766E-02
 EXTERNAL_FIELDS_LOAD, it=   3600000 : Reading new data, i0,i1=   12    1 (prev=   12    1 )
 DIC_FIELDS_LOAD, it=   3600000 : Reading new data, i0,i1=   12    1 (prev=   12    0 )
 cg2d: Sum(rhs),rhsMax =   1.69318610687696E-07  8.73439699737069E+00
 cg2d: Sum(rhs),rhsMax =   1.69217777568065E-07  8.73957985685053E+00
 cg2d: Sum(rhs),rhsMax =   1.69116930237578E-07  8.74478996407667E+00
 cg2d: Sum(rhs),rhsMax =   1.69015713424869E-07  8.75002525197054E+00
 cg2d: Sum(rhs),rhsMax =   1.68913977915963E-07  8.75528319149979E+00
 cg2d: Sum(rhs),rhsMax =   1.68812391621032E-07  8.76056091159563E+00
 cg2d: Sum(rhs),rhsMax =   1.68710130310501E-07  8.76585531016545E+00
 cg2d: Sum(rhs),rhsMax =  -2.14224556316367E-07  8.77116335169235E+00
 cg2d: Sum(rhs),rhsMax =  -1.55200297058400E-11  6.65393708043577E-02
 EXTERNAL_FIELDS_LOAD, it=   3600000 : Reading new data, i0,i1=   12    1 (prev=   12    1 )
 DIC_FIELDS_LOAD, it=   3600000 : Reading new data, i0,i1=   12    1 (prev=   12    0 )
 cg2d: Sum(rhs),rhsMax =   1.69318610687696E-07  8.73439699737069E+00
 cg2d: Sum(rhs),rhsMax =   1.69217777568065E-07  8.73957985685053E+00
 cg2d: Sum(rhs),rhsMax =   1.69116930237578E-07  8.74478996407667E+00
 cg2d: Sum(rhs),rhsMax =   1.69015713424869E-07  8.75002525197054E+00
 cg2d: Sum(rhs),rhsMax =   1.68913977915963E-07  8.75528319149979E+00
 cg2d: Sum(rhs),rhsMax =   1.68812391621032E-07  8.76056091159563E+00
 cg2d: Sum(rhs),rhsMax =   1.71469719845163E-06  8.76585547286946E+00
 cg2d: Sum(rhs),rhsMax =  -1.58490998103389E-11  6.56856857795847E-02
 EXTERNAL_FIELDS_LOAD, it=   3600000 : Reading new data, i0,i1=   12    1 (prev=   12    1 )
 DIC_FIELDS_LOAD, it=   3600000 : Reading new data, i0,i1=   12    1 (prev=   12    0 )
 cg2d: Sum(rhs),rhsMax =   1.69318610687696E-07  8.73439699737069E+00
 cg2d: Sum(rhs),rhsMax =   1.69217777568065E-07  8.73957985685053E+00
 cg2d: Sum(rhs),rhsMax =   1.69116930237578E-07  8.74478996407667E+00
 cg2d: Sum(rhs),rhsMax =   1.69015713424869E-07  8.75002525197054E+00
 cg2d: Sum(rhs),rhsMax =   1.68913977915963E-07  8.75528319149979E+00
 cg2d: Sum(rhs),rhsMax =   7.70393718596551E-07  8.76056102563137E+00
 cg2d: Sum(rhs),rhsMax =  -1.61777258256279E-11  6.46373009885655E-02
 EXTERNAL_FIELDS_LOAD, it=   3600000 : Reading new data, i0,i1=   12    1 (prev=   12    1 )
 DIC_FIELDS_LOAD, it=   3600000 : Reading new data, i0,i1=   12    1 (prev=   12    0 )
 cg2d: Sum(rhs),rhsMax =   1.69318610687696E-07  8.73439699737069E+00
 cg2d: Sum(rhs),rhsMax =   1.69217777568065E-07  8.73957985685053E+00
 cg2d: Sum(rhs),rhsMax =   1.69116930237578E-07  8.74478996407667E+00
 cg2d: Sum(rhs),rhsMax =   1.69015713424869E-07  8.75002525197054E+00
 cg2d: Sum(rhs),rhsMax =  -7.49270682831593E-07  8.75528326636530E+00
 cg2d: Sum(rhs),rhsMax =  -1.64805946667457E-11  6.39241346670484E-02
 EXTERNAL_FIELDS_LOAD, it=   3600000 : Reading new data, i0,i1=   12    1 (prev=   12    1 )
 DIC_FIELDS_LOAD, it=   3600000 : Reading new data, i0,i1=   12    1 (prev=   12    0 )
 cg2d: Sum(rhs),rhsMax =   1.69318610687696E-07  8.73439699737069E+00
 cg2d: Sum(rhs),rhsMax =   1.69217777568065E-07  8.73957985685053E+00
 cg2d: Sum(rhs),rhsMax =   1.69116930237578E-07  8.74478996407667E+00
 cg2d: Sum(rhs),rhsMax =   1.99128180611297E-08  8.75002559007313E+00
 cg2d: Sum(rhs),rhsMax =  -1.68314251425272E-11  6.32874036132527E-02
 EXTERNAL_FIELDS_LOAD, it=   3600000 : Reading new data, i0,i1=   12    1 (prev=   12    1 )
 DIC_FIELDS_LOAD, it=   3600000 : Reading new data, i0,i1=   12    1 (prev=   12    0 )
 cg2d: Sum(rhs),rhsMax =   1.69318610687696E-07  8.73439699737069E+00
 cg2d: Sum(rhs),rhsMax =   1.69217777568065E-07  8.73957985685053E+00
 cg2d: Sum(rhs),rhsMax =   4.64190797799802E-07  8.74478995090024E+00
 cg2d: Sum(rhs),rhsMax =  -1.70552461042917E-11  6.26090161554953E-02
 EXTERNAL_FIELDS_LOAD, it=   3600000 : Reading new data, i0,i1=   12    1 (prev=   12    1 )
 DIC_FIELDS_LOAD, it=   3600000 : Reading new data, i0,i1=   12    1 (prev=   12    0 )
 cg2d: Sum(rhs),rhsMax =   1.69318610687696E-07  8.73439699737069E+00
 cg2d: Sum(rhs),rhsMax =   4.90807515518554E-07  8.73957995531855E+00
 cg2d: Sum(rhs),rhsMax =  -1.73101533107456E-11  6.22207566155692E-02
 EXTERNAL_FIELDS_LOAD, it=   3600000 : Reading new data, i0,i1=   12    1 (prev=   12    1 )
 DIC_FIELDS_LOAD, it=   3600000 : Reading new data, i0,i1=   12    1 (prev=   12    0 )
 cg2d: Sum(rhs),rhsMax =   1.69318511211713E-07  8.73439699714267E+00
 cg2d: Sum(rhs),rhsMax =  -1.65392144424459E-11  6.57272940713958E-02
 ph-pack: packing ecco_cost
 ph-pack: packing ecco_ctrl
(PID.TID 0000.0001)   Seconds in section "ALL                    [THE_MODEL_MAIN]":
(PID.TID 0000.0001)           User time: 3636.1799999999998
(PID.TID 0000.0001)         System time: 9.6500000000000004
(PID.TID 0000.0001)     Wall clock time: 3676.8763699531555
(PID.TID 0000.0001)          No. starts: 1
(PID.TID 0000.0001)           No. stops: 1
(PID.TID 0000.0001)   Seconds in section "INITIALISE_FIXED       [THE_MODEL_MAIN]":
(PID.TID 0000.0001)           User time: 0.67000000000000004
(PID.TID 0000.0001)         System time: 5.99999999999999978E-2
(PID.TID 0000.0001)     Wall clock time: 2.1641678810119629
(PID.TID 0000.0001)          No. starts: 1
(PID.TID 0000.0001)           No. stops: 1
(PID.TID 0000.0001)   Seconds in section "ADTHE_MAIN_LOOP          [ADJOINT RUN]":
(PID.TID 0000.0001)           User time: 3635.5100000000002
(PID.TID 0000.0001)         System time: 9.5899999999999999
(PID.TID 0000.0001)     Wall clock time: 3674.5696439743042
(PID.TID 0000.0001)          No. starts: 1
(PID.TID 0000.0001)           No. stops: 1
(PID.TID 0000.0001)   Seconds in section "FORWARD_STEP        [MAIN_DO_LOOP]":
(PID.TID 0000.0001)           User time: 3307.0300000026859
(PID.TID 0000.0001)         System time: 5.8599999999999284
(PID.TID 0000.0001)     Wall clock time: 3329.8103182315826
(PID.TID 0000.0001)          No. starts: 34625
(PID.TID 0000.0001)           No. stops: 34625
(PID.TID 0000.0001)   Seconds in section "LOAD_FIELDS_DRIVER  [FORWARD_STEP]":
(PID.TID 0000.0001)           User time: 21.640000000006694
(PID.TID 0000.0001)         System time: 3.9299999999999429
(PID.TID 0000.0001)     Wall clock time: 35.164751291275024
(PID.TID 0000.0001)          No. starts: 34625
(PID.TID 0000.0001)           No. stops: 34625
(PID.TID 0000.0001)   Seconds in section "EXTERNAL_FLDS_LOAD [LOAD_FLDS_DRIVER]":
(PID.TID 0000.0001)           User time: 11.030000000007931
(PID.TID 0000.0001)         System time: 2.6099999999999675
(PID.TID 0000.0001)     Wall clock time: 19.209562540054321
(PID.TID 0000.0001)          No. starts: 36085
(PID.TID 0000.0001)           No. stops: 36085
(PID.TID 0000.0001)   Seconds in section "CTRL_MAP_FORCING  [FORWARD_STEP]":
(PID.TID 0000.0001)           User time: 15.580000000004475
(PID.TID 0000.0001)         System time: 4.99999999999989342E-2
(PID.TID 0000.0001)     Wall clock time: 16.082244873046875
(PID.TID 0000.0001)          No. starts: 34625
(PID.TID 0000.0001)           No. stops: 34625
(PID.TID 0000.0001)   Seconds in section "DO_ATMOSPHERIC_PHYS [FORWARD_STEP]":
(PID.TID 0000.0001)           User time: 2.4599999999977626
(PID.TID 0000.0001)         System time: 0.
(PID.TID 0000.0001)     Wall clock time: 2.611609935760498
(PID.TID 0000.0001)          No. starts: 34625
(PID.TID 0000.0001)           No. stops: 34625
(PID.TID 0000.0001)   Seconds in section "DO_OCEANIC_PHYS     [FORWARD_STEP]":
(PID.TID 0000.0001)           User time: 498.69000000006781
(PID.TID 0000.0001)         System time: 0.50999999999999446
(PID.TID 0000.0001)     Wall clock time: 499.07235527038574
(PID.TID 0000.0001)          No. starts: 34625
(PID.TID 0000.0001)           No. stops: 34625
(PID.TID 0000.0001)   Seconds in section "KPP_CALC [DO_OCEANIC_PHYS]":
(PID.TID 0000.0001)           User time: 310.50000000001182
(PID.TID 0000.0001)         System time: 0.12999999999999723
(PID.TID 0000.0001)     Wall clock time: 310.87859630584717
(PID.TID 0000.0001)          No. starts: 35355
(PID.TID 0000.0001)           No. stops: 35355
(PID.TID 0000.0001)   Seconds in section "GCHEM_CALC_TENDENCY [FORWARD_STEP]":
(PID.TID 0000.0001)           User time: 0.26999999999952706
(PID.TID 0000.0001)         System time: 0.
(PID.TID 0000.0001)     Wall clock time: 0.29697084426879883
(PID.TID 0000.0001)          No. starts: 34625
(PID.TID 0000.0001)           No. stops: 34625
(PID.TID 0000.0001)   Seconds in section "DYNAMICS            [FORWARD_STEP]":
(PID.TID 0000.0001)           User time: 275.2100000000105
(PID.TID 0000.0001)         System time: 8.99999999999998579E-2
(PID.TID 0000.0001)     Wall clock time: 275.65113806724548
(PID.TID 0000.0001)          No. starts: 34625
(PID.TID 0000.0001)           No. stops: 34625
(PID.TID 0000.0001)   Seconds in section "SOLVE_FOR_PRESSURE  [FORWARD_STEP]":
(PID.TID 0000.0001)           User time: 65.339999999993324
(PID.TID 0000.0001)         System time: 2.99999999999993605E-2
(PID.TID 0000.0001)     Wall clock time: 65.274573564529419
(PID.TID 0000.0001)          No. starts: 34625
(PID.TID 0000.0001)           No. stops: 34625
(PID.TID 0000.0001)   Seconds in section "MOM_CORRECTION_STEP [FORWARD_STEP]":
(PID.TID 0000.0001)           User time: 9.120000000012169
(PID.TID 0000.0001)         System time: 0.
(PID.TID 0000.0001)     Wall clock time: 9.2158520221710205
(PID.TID 0000.0001)          No. starts: 34625
(PID.TID 0000.0001)           No. stops: 34625
(PID.TID 0000.0001)   Seconds in section "INTEGR_CONTINUITY   [FORWARD_STEP]":
(PID.TID 0000.0001)           User time: 5.6900000000041473
(PID.TID 0000.0001)         System time: 2.99999999999993605E-2
(PID.TID 0000.0001)     Wall clock time: 5.8204457759857178
(PID.TID 0000.0001)          No. starts: 34625
(PID.TID 0000.0001)           No. stops: 34625
(PID.TID 0000.0001)   Seconds in section "BLOCKING_EXCHANGES  [FORWARD_STEP]":
(PID.TID 0000.0001)           User time: 142.04999999999882
(PID.TID 0000.0001)         System time: 0.28999999999999204
(PID.TID 0000.0001)     Wall clock time: 142.98367071151733
(PID.TID 0000.0001)          No. starts: 69250
(PID.TID 0000.0001)           No. stops: 69250
(PID.TID 0000.0001)   Seconds in section "THERMODYNAMICS      [FORWARD_STEP]":
(PID.TID 0000.0001)           User time: 1724.2899999984215
(PID.TID 0000.0001)         System time: 0.29999999999999361
(PID.TID 0000.0001)     Wall clock time: 1725.8203272819519
(PID.TID 0000.0001)          No. starts: 34625
(PID.TID 0000.0001)           No. stops: 34625
(PID.TID 0000.0001)   Seconds in section "TRC_CORRECTION_STEP [FORWARD_STEP]":
(PID.TID 0000.0001)           User time: 0.24000000000023647
(PID.TID 0000.0001)         System time: 0.
(PID.TID 0000.0001)     Wall clock time: 0.30670785903930664
(PID.TID 0000.0001)          No. starts: 34625
(PID.TID 0000.0001)           No. stops: 34625
(PID.TID 0000.0001)   Seconds in section "GCHEM_FORCING_SEP  [FORWARD_STEP]":
(PID.TID 0000.0001)           User time: 81.980000000021846
(PID.TID 0000.0001)         System time: 6.00000000000004974E-2
(PID.TID 0000.0001)     Wall clock time: 81.242800235748291
(PID.TID 0000.0001)          No. starts: 34625
(PID.TID 0000.0001)           No. stops: 34625
(PID.TID 0000.0001)   Seconds in section "MONITOR             [FORWARD_STEP]":
(PID.TID 0000.0001)           User time: 0.40999999999894499
(PID.TID 0000.0001)         System time: 0.
(PID.TID 0000.0001)     Wall clock time: 0.38542962074279785
(PID.TID 0000.0001)          No. starts: 34625
(PID.TID 0000.0001)           No. stops: 34625
(PID.TID 0000.0001)   Seconds in section "COST_TILE           [FORWARD_STEP]":
(PID.TID 0000.0001)           User time: 0.30999999999994543
(PID.TID 0000.0001)         System time: 0.
(PID.TID 0000.0001)     Wall clock time: 0.30187797546386719
(PID.TID 0000.0001)          No. starts: 34625
(PID.TID 0000.0001)           No. stops: 34625
(PID.TID 0000.0001)   Seconds in section "DO_THE_MODEL_IO     [FORWARD_STEP]":
(PID.TID 0000.0001)           User time: 5.6600000000066757
(PID.TID 0000.0001)         System time: 0.38999999999998636
(PID.TID 0000.0001)     Wall clock time: 11.418427467346191
(PID.TID 0000.0001)          No. starts: 34625
(PID.TID 0000.0001)           No. stops: 34625
(PID.TID 0000.0001)   Seconds in section "PTRACERS_RESET      [FORWARD_STEP]":
(PID.TID 0000.0001)           User time: 0.30999999999903594
(PID.TID 0000.0001)         System time: 0.
(PID.TID 0000.0001)     Wall clock time: 0.31325912475585937
(PID.TID 0000.0001)          No. starts: 34625
(PID.TID 0000.0001)           No. stops: 34625
(PID.TID 0000.0001)   Seconds in section "DO_WRITE_PICKUP     [FORWARD_STEP]":
(PID.TID 0000.0001)           User time: 1.3700000000008004
(PID.TID 0000.0001)         System time: 2.99999999999993605E-2
(PID.TID 0000.0001)     Wall clock time: 1.4488801956176758
(PID.TID 0000.0001)          No. starts: 34625
(PID.TID 0000.0001)           No. stops: 34625
(PID.TID 0000.0001)   Seconds in section "COST_GENCOST_ALL    [ECCO SPIN-DOWN]":
(PID.TID 0000.0001)           User time: 3.00000000000011369E-2
(PID.TID 0000.0001)         System time: 0.
(PID.TID 0000.0001)     Wall clock time: 5.54788112640380859E-2
(PID.TID 0000.0001)          No. starts: 1
(PID.TID 0000.0001)           No. stops: 1
(PID.TID 0000.0001)   Seconds in section "CTRL_COST_DRIVER [ECCO SPIN-DOWN]":
(PID.TID 0000.0001)           User time: 0.
(PID.TID 0000.0001)         System time: 0.
(PID.TID 0000.0001)     Wall clock time: 1.811981201171875E-5
(PID.TID 0000.0001)          No. starts: 1
(PID.TID 0000.0001)           No. stops: 1
(PID.TID 0000.0001)   Seconds in section "I/O (WRITE)        [ADJOINT LOOP]":
(PID.TID 0000.0001)           User time: 5.2299999999995634
(PID.TID 0000.0001)         System time: 0.42999999999999972
(PID.TID 0000.0001)     Wall clock time: 9.3674626350402832
(PID.TID 0000.0001)          No. starts: 12
(PID.TID 0000.0001)           No. stops: 12
(PID.TID 0000.0001)   Seconds in section "CTRL_PACK           [THE_MODEL_MAIN]":
(PID.TID 0000.0001)           User time: 0.
(PID.TID 0000.0001)         System time: 0.
(PID.TID 0000.0001)     Wall clock time: 6.09669685363769531E-2
(PID.TID 0000.0001)          No. starts: 1
(PID.TID 0000.0001)           No. stops: 1
(PID.TID 0000.0001)   Seconds in section "CTRL_PACK     [THE_MODEL_MAIN]":
(PID.TID 0000.0001)           User time: 0.
(PID.TID 0000.0001)         System time: 0.
(PID.TID 0000.0001)     Wall clock time: 7.8907012939453125E-2
(PID.TID 0000.0001)          No. starts: 1
(PID.TID 0000.0001)           No. stops: 1
(PID.TID 0000.0001) // ======================================================
(PID.TID 0000.0001) // Tile <-> Tile communication statistics
(PID.TID 0000.0001) // ======================================================
(PID.TID 0000.0001) // o Tile number: 000001
(PID.TID 0000.0001) //         No. X exchanges =              0
(PID.TID 0000.0001) //            Max. X spins =              0
(PID.TID 0000.0001) //            Min. X spins =     1000000000
(PID.TID 0000.0001) //          Total. X spins =              0
(PID.TID 0000.0001) //            Avg. X spins =       0.00E+00
(PID.TID 0000.0001) //         No. Y exchanges =              0
(PID.TID 0000.0001) //            Max. Y spins =              0
(PID.TID 0000.0001) //            Min. Y spins =     1000000000
(PID.TID 0000.0001) //          Total. Y spins =              0
(PID.TID 0000.0001) //            Avg. Y spins =       0.00E+00
(PID.TID 0000.0001) // o Thread number: 000001
(PID.TID 0000.0001) //            No. barriers =        5410402
(PID.TID 0000.0001) //      Max. barrier spins =              1
(PID.TID 0000.0001) //      Min. barrier spins =              1
(PID.TID 0000.0001) //     Total barrier spins =        5410402
(PID.TID 0000.0001) //      Avg. barrier spins =       1.00E+00
PROGRAM MAIN: Execution ended Normally
